*SPEF "ieee 1481-1999"
*DESIGN "ahb_counter"
*DATE "15:59:25 Friday February 28, 2025"
*VENDOR "The OpenROAD Project"
*PROGRAM "OpenROAD"
*VERSION "edf00dff99f6c40d67a30c0e22a8191c5d2ed9d6"
*DESIGN_FLOW "NAME_SCOPE LOCAL" "PIN_CAP NONE"
*DIVIDER /
*DELIMITER :
*BUS_DELIMITER []
*T_UNIT 1 NS
*C_UNIT 1 PF
*R_UNIT 1 OHM
*L_UNIT 1 HENRY

*NAME_MAP
*1 HADDR[0]
*2 HADDR[10]
*3 HADDR[11]
*4 HADDR[12]
*5 HADDR[13]
*6 HADDR[14]
*7 HADDR[15]
*8 HADDR[16]
*9 HADDR[17]
*10 HADDR[18]
*11 HADDR[19]
*12 HADDR[1]
*13 HADDR[20]
*14 HADDR[21]
*15 HADDR[22]
*16 HADDR[23]
*17 HADDR[24]
*18 HADDR[25]
*19 HADDR[26]
*20 HADDR[27]
*21 HADDR[28]
*22 HADDR[29]
*23 HADDR[2]
*24 HADDR[30]
*25 HADDR[31]
*26 HADDR[3]
*27 HADDR[4]
*28 HADDR[5]
*29 HADDR[6]
*30 HADDR[7]
*31 HADDR[8]
*32 HADDR[9]
*33 HCLK
*34 HRDATA[0]
*35 HRDATA[10]
*36 HRDATA[11]
*37 HRDATA[12]
*38 HRDATA[13]
*39 HRDATA[14]
*40 HRDATA[15]
*41 HRDATA[16]
*42 net115
*43 HRDATA[18]
*44 HRDATA[19]
*45 HRDATA[1]
*46 net116
*47 HRDATA[21]
*48 net117
*49 HRDATA[23]
*50 net118
*51 HRDATA[25]
*52 HRDATA[26]
*53 HRDATA[27]
*54 HRDATA[28]
*55 net119
*56 HRDATA[2]
*57 HRDATA[30]
*58 HRDATA[31]
*59 HRDATA[3]
*60 HRDATA[4]
*61 HRDATA[5]
*62 HRDATA[6]
*63 HRDATA[7]
*64 HRDATA[8]
*65 HRDATA[9]
*66 HREADY
*67 net120
*68 HRESETn
*69 HSEL
*70 HSIZE[0]
*71 HSIZE[1]
*72 HSIZE[2]
*73 HTRANS[0]
*74 HTRANS[1]
*75 HWDATA[0]
*76 HWDATA[10]
*77 HWDATA[11]
*78 HWDATA[12]
*79 HWDATA[13]
*80 HWDATA[14]
*81 HWDATA[15]
*82 HWDATA[16]
*83 HWDATA[17]
*84 HWDATA[18]
*85 HWDATA[19]
*86 HWDATA[1]
*87 HWDATA[20]
*88 HWDATA[21]
*89 HWDATA[22]
*90 HWDATA[23]
*91 HWDATA[24]
*92 HWDATA[25]
*93 HWDATA[26]
*94 HWDATA[27]
*95 HWDATA[28]
*96 HWDATA[29]
*97 HWDATA[2]
*98 HWDATA[30]
*99 HWDATA[31]
*100 HWDATA[3]
*101 HWDATA[4]
*102 HWDATA[5]
*103 HWDATA[6]
*104 HWDATA[7]
*105 HWDATA[8]
*106 HWDATA[9]
*107 HWRITE
*108 gpio_oeb[0]
*109 gpio_oeb[10]
*110 gpio_oeb[11]
*111 gpio_oeb[12]
*112 gpio_oeb[13]
*113 gpio_oeb[14]
*114 gpio_oeb[15]
*115 gpio_oeb[1]
*116 gpio_oeb[2]
*117 gpio_oeb[3]
*118 gpio_oeb[4]
*119 gpio_oeb[5]
*120 gpio_oeb[6]
*121 gpio_oeb[7]
*122 gpio_oeb[8]
*123 gpio_oeb[9]
*124 gpio_out[0]
*125 gpio_out[10]
*126 gpio_out[11]
*127 gpio_out[12]
*128 gpio_out[13]
*129 gpio_out[14]
*130 gpio_out[15]
*131 gpio_out[1]
*132 gpio_out[2]
*133 gpio_out[3]
*134 gpio_out[4]
*135 gpio_out[5]
*136 gpio_out[6]
*137 gpio_out[7]
*138 gpio_out[8]
*139 gpio_out[9]
*142 CTRL_REG
*143 _000_
*144 _001_
*145 _002_
*146 _003_
*147 _004_
*148 _005_
*149 _006_
*150 _007_
*151 _008_
*152 _009_
*153 _010_
*154 _011_
*155 _012_
*156 _013_
*157 _014_
*158 _015_
*159 _016_
*160 _017_
*161 _018_
*162 _019_
*163 _020_
*164 _021_
*165 _022_
*166 _023_
*167 _024_
*168 _025_
*169 _026_
*170 _027_
*171 _028_
*172 _029_
*173 _030_
*174 _031_
*175 _032_
*176 _033_
*177 _034_
*178 _035_
*179 _036_
*180 _037_
*181 _038_
*182 _039_
*183 _040_
*184 _041_
*185 _042_
*186 _043_
*187 _044_
*188 _045_
*189 _046_
*190 _047_
*191 _048_
*192 _049_
*193 _050_
*194 _051_
*195 _052_
*196 _053_
*197 _054_
*198 _055_
*199 _056_
*200 _057_
*201 _058_
*202 _059_
*203 _060_
*204 _061_
*205 _062_
*206 _063_
*207 _064_
*208 _065_
*209 _066_
*210 _067_
*211 _068_
*212 _069_
*213 _070_
*214 _071_
*215 _072_
*216 _073_
*217 _074_
*218 _075_
*219 _076_
*220 _077_
*221 _078_
*222 _079_
*223 _080_
*224 _081_
*225 _082_
*226 _083_
*227 _084_
*228 _085_
*229 _086_
*230 _087_
*231 _088_
*232 _089_
*233 _090_
*234 _091_
*235 _092_
*236 _093_
*237 _094_
*238 _095_
*239 _096_
*240 _097_
*241 _098_
*242 clknet_0_HCLK
*243 clknet_2_0__leaf_HCLK
*244 clknet_2_1__leaf_HCLK
*245 clknet_2_2__leaf_HCLK
*246 clknet_2_3__leaf_HCLK
*247 last_HADDR\[0\]
*248 last_HADDR\[10\]
*249 last_HADDR\[11\]
*250 last_HADDR\[12\]
*251 last_HADDR\[13\]
*252 last_HADDR\[14\]
*253 last_HADDR\[15\]
*254 last_HADDR\[1\]
*255 last_HADDR\[2\]
*256 last_HADDR\[3\]
*257 last_HADDR\[4\]
*258 last_HADDR\[5\]
*259 last_HADDR\[6\]
*260 last_HADDR\[7\]
*261 last_HADDR\[8\]
*262 last_HADDR\[9\]
*263 last_HSEL
*264 last_HTRANS\[1\]
*265 last_HWRITE
*266 net1
*267 net10
*268 net100
*269 net101
*270 net102
*271 net1020
*272 net103
*273 net104
*274 net1040
*275 net1041
*276 net105
*277 net106
*278 net107
*279 net108
*280 net109
*281 net11
*282 net110
*283 net111
*284 net112
*285 net113
*286 net114
*287 net12
*288 net121
*289 net1218
*290 net1219
*291 net122
*292 net1220
*293 net1221
*294 net123
*295 net124
*296 net125
*297 net126
*298 net127
*299 net128
*300 net129
*301 net13
*302 net130
*303 net131
*304 net132
*305 net133
*306 net134
*307 net135
*308 net136
*309 net137
*310 net138
*311 net139
*312 net1398
*313 net1399
*314 net14
*315 net140
*316 net1400
*317 net141
*318 net142
*319 net143
*320 net144
*321 net145
*322 net146
*323 net147
*324 net148
*325 net149
*326 net15
*327 net150
*328 net151
*329 net152
*330 net153
*331 net154
*332 net155
*333 net156
*334 net157
*335 net1578
*336 net1579
*337 net158
*338 net159
*339 net16
*340 net160
*341 net161
*342 net162
*343 net163
*344 net164
*345 net165
*346 net166
*347 net167
*348 net168
*349 net169
*350 net17
*351 net170
*352 net171
*353 net172
*354 net173
*355 net174
*356 net175
*357 net176
*358 net177
*359 net178
*360 net179
*361 net18
*362 net180
*363 net181
*364 net182
*365 net183
*366 net184
*367 net185
*368 net186
*369 net187
*370 net188
*371 net189
*372 net19
*373 net190
*374 net191
*375 net192
*376 net193
*377 net194
*378 net195
*379 net196
*380 net197
*381 net198
*382 net199
*383 net2
*384 net20
*385 net200
*386 net201
*387 net202
*388 net203
*389 net204
*390 net205
*391 net206
*392 net207
*393 net208
*394 net209
*395 net21
*396 net210
*397 net211
*398 net212
*399 net213
*400 net214
*401 net215
*402 net216
*403 net217
*404 net218
*405 net219
*406 net22
*407 net220
*408 net221
*409 net222
*410 net223
*411 net224
*412 net225
*413 net226
*414 net227
*415 net228
*416 net229
*417 net23
*418 net230
*419 net231
*420 net232
*421 net233
*422 net234
*423 net235
*424 net236
*425 net237
*426 net238
*427 net239
*428 net24
*429 net240
*430 net241
*431 net242
*432 net243
*433 net244
*434 net245
*435 net246
*436 net247
*437 net248
*438 net249
*439 net25
*440 net250
*441 net251
*442 net252
*443 net253
*444 net254
*445 net255
*446 net256
*447 net257
*448 net258
*449 net259
*450 net26
*451 net260
*452 net261
*453 net262
*454 net263
*455 net264
*456 net265
*457 net266
*458 net267
*459 net268
*460 net269
*461 net27
*462 net270
*463 net271
*464 net272
*465 net273
*466 net274
*467 net275
*468 net276
*469 net277
*470 net278
*471 net279
*472 net28
*473 net280
*474 net281
*475 net282
*476 net283
*477 net284
*478 net285
*479 net289
*480 net29
*481 net290
*482 net291
*483 net293
*484 net295
*485 net296
*486 net297
*487 net298
*488 net299
*489 net3
*490 net30
*491 net300
*492 net301
*493 net302
*494 net304
*495 net306
*496 net307
*497 net308
*498 net309
*499 net31
*500 net310
*501 net312
*502 net314
*503 net316
*504 net317
*505 net318
*506 net319
*507 net32
*508 net324
*509 net325
*510 net326
*511 net33
*512 net332
*513 net333
*514 net334
*515 net34
*516 net340
*517 net341
*518 net342
*519 net348
*520 net349
*521 net35
*522 net350
*523 net351
*524 net357
*525 net358
*526 net359
*527 net36
*528 net365
*529 net366
*530 net367
*531 net368
*532 net369
*533 net37
*534 net370
*535 net371
*536 net377
*537 net378
*538 net379
*539 net38
*540 net380
*541 net381
*542 net382
*543 net383
*544 net384
*545 net385
*546 net386
*547 net387
*548 net388
*549 net389
*550 net39
*551 net390
*552 net391
*553 net392
*554 net393
*555 net394
*556 net395
*557 net396
*558 net397
*559 net398
*560 net399
*561 net4
*562 net40
*563 net400
*564 net401
*565 net402
*566 net403
*567 net404
*568 net405
*569 net406
*570 net407
*571 net408
*572 net409
*573 net41
*574 net410
*575 net411
*576 net412
*577 net413
*578 net414
*579 net415
*580 net416
*581 net417
*582 net418
*583 net419
*584 net42
*585 net420
*586 net421
*587 net422
*588 net423
*589 net424
*590 net425
*591 net426
*592 net427
*593 net428
*594 net429
*595 net43
*596 net430
*597 net431
*598 net432
*599 net433
*600 net434
*601 net435
*602 net436
*603 net437
*604 net438
*605 net439
*606 net44
*607 net440
*608 net441
*609 net444
*610 net445
*611 net446
*612 net447
*613 net45
*614 net450
*615 net451
*616 net452
*617 net453
*618 net456
*619 net457
*620 net458
*621 net459
*622 net46
*623 net462
*624 net463
*625 net464
*626 net465
*627 net468
*628 net469
*629 net47
*630 net470
*631 net471
*632 net474
*633 net475
*634 net476
*635 net477
*636 net48
*637 net480
*638 net481
*639 net482
*640 net483
*641 net486
*642 net487
*643 net488
*644 net489
*645 net49
*646 net492
*647 net493
*648 net494
*649 net495
*650 net498
*651 net499
*652 net5
*653 net50
*654 net500
*655 net501
*656 net504
*657 net505
*658 net506
*659 net507
*660 net51
*661 net510
*662 net511
*663 net512
*664 net513
*665 net516
*666 net517
*667 net518
*668 net519
*669 net52
*670 net522
*671 net523
*672 net524
*673 net525
*674 net528
*675 net529
*676 net53
*677 net530
*678 net531
*679 net536
*680 net537
*681 net538
*682 net539
*683 net54
*684 net540
*685 net541
*686 net542
*687 net543
*688 net544
*689 net545
*690 net546
*691 net547
*692 net548
*693 net549
*694 net55
*695 net550
*696 net551
*697 net552
*698 net553
*699 net554
*700 net555
*701 net556
*702 net557
*703 net558
*704 net559
*705 net56
*706 net560
*707 net561
*708 net562
*709 net563
*710 net564
*711 net565
*712 net566
*713 net567
*714 net568
*715 net569
*716 net57
*717 net570
*718 net571
*719 net572
*720 net573
*721 net574
*722 net575
*723 net576
*724 net577
*725 net578
*726 net579
*727 net58
*728 net580
*729 net581
*730 net582
*731 net583
*732 net586
*733 net587
*734 net588
*735 net589
*736 net59
*737 net590
*738 net591
*739 net592
*740 net593
*741 net594
*742 net595
*743 net596
*744 net597
*745 net598
*746 net599
*747 net6
*748 net60
*749 net600
*750 net604
*751 net605
*752 net609
*753 net61
*754 net610
*755 net614
*756 net615
*757 net619
*758 net62
*759 net620
*760 net624
*761 net625
*762 net629
*763 net63
*764 net630
*765 net634
*766 net635
*767 net639
*768 net64
*769 net640
*770 net641
*771 net642
*772 net643
*773 net644
*774 net645
*775 net646
*776 net65
*777 net650
*778 net651
*779 net652
*780 net653
*781 net654
*782 net655
*783 net656
*784 net657
*785 net658
*786 net659
*787 net66
*788 net660
*789 net661
*790 net662
*791 net663
*792 net664
*793 net665
*794 net666
*795 net667
*796 net668
*797 net669
*798 net67
*799 net672
*800 net673
*801 net674
*802 net675
*803 net676
*804 net677
*805 net678
*806 net679
*807 net68
*808 net680
*809 net681
*810 net682
*811 net683
*812 net684
*813 net69
*814 net7
*815 net70
*816 net71
*817 net72
*818 net73
*819 net74
*820 net75
*821 net76
*822 net77
*823 net78
*824 net79
*825 net8
*826 net80
*827 net81
*828 net82
*829 net83
*830 net84
*831 net85
*832 net853
*833 net854
*834 net855
*835 net856
*836 net857
*837 net86
*838 net87
*839 net88
*840 net89
*841 net9
*842 net90
*843 net91
*844 net92
*845 net93
*846 net94
*847 net95
*848 net96
*849 net97
*850 net98
*851 net99
*852 ANTENNA_1
*853 ANTENNA_10
*854 ANTENNA_11
*855 ANTENNA_12
*856 ANTENNA_13
*857 ANTENNA_14
*858 ANTENNA_15
*859 ANTENNA_16
*860 ANTENNA_17
*861 ANTENNA_18
*862 ANTENNA_19
*863 ANTENNA_2
*864 ANTENNA_20
*865 ANTENNA_21
*866 ANTENNA_22
*867 ANTENNA_23
*868 ANTENNA_24
*869 ANTENNA_25
*870 ANTENNA_26
*871 ANTENNA_27
*872 ANTENNA_28
*873 ANTENNA_29
*874 ANTENNA_3
*875 ANTENNA_30
*876 ANTENNA_31
*877 ANTENNA_32
*878 ANTENNA_33
*879 ANTENNA_34
*880 ANTENNA_35
*881 ANTENNA_36
*882 ANTENNA_37
*883 ANTENNA_38
*884 ANTENNA_39
*885 ANTENNA_4
*886 ANTENNA_5
*887 ANTENNA_6
*888 ANTENNA_7
*889 ANTENNA_8
*890 ANTENNA_9
*891 FILLER_0_122
*892 FILLER_0_141
*893 FILLER_0_178
*894 FILLER_0_273
*895 FILLER_0_281
*896 FILLER_0_3
*897 FILLER_0_421
*898 FILLER_0_431
*899 FILLER_0_533
*900 FILLER_0_555
*901 FILLER_0_559
*902 FILLER_0_577
*903 FILLER_0_584
*904 FILLER_0_589
*905 FILLER_0_597
*906 FILLER_0_633
*907 FILLER_0_641
*908 FILLER_0_661
*909 FILLER_0_668
*910 FILLER_0_673
*911 FILLER_0_681
*912 FILLER_0_701
*913 FILLER_0_723
*914 FILLER_0_727
*915 FILLER_0_745
*916 FILLER_0_749
*917 FILLER_0_755
*918 FILLER_0_78
*919 FILLER_0_785
*920 FILLER_0_807
*921 FILLER_0_811
*922 FILLER_0_821
*923 FILLER_0_85
*924 FILLER_10_109
*925 FILLER_10_121
*926 FILLER_10_129
*927 FILLER_10_139
*928 FILLER_10_147
*929 FILLER_10_15
*930 FILLER_10_27
*931 FILLER_10_29
*932 FILLER_10_3
*933 FILLER_10_322
*934 FILLER_10_326
*935 FILLER_10_368
*936 FILLER_10_41
*937 FILLER_10_416
*938 FILLER_10_435
*939 FILLER_10_447
*940 FILLER_10_459
*941 FILLER_10_471
*942 FILLER_10_475
*943 FILLER_10_477
*944 FILLER_10_489
*945 FILLER_10_501
*946 FILLER_10_513
*947 FILLER_10_525
*948 FILLER_10_53
*949 FILLER_10_531
*950 FILLER_10_533
*951 FILLER_10_545
*952 FILLER_10_557
*953 FILLER_10_569
*954 FILLER_10_581
*955 FILLER_10_587
*956 FILLER_10_589
*957 FILLER_10_601
*958 FILLER_10_613
*959 FILLER_10_625
*960 FILLER_10_637
*961 FILLER_10_643
*962 FILLER_10_645
*963 FILLER_10_65
*964 FILLER_10_657
*965 FILLER_10_669
*966 FILLER_10_681
*967 FILLER_10_693
*968 FILLER_10_699
*969 FILLER_10_701
*970 FILLER_10_713
*971 FILLER_10_725
*972 FILLER_10_737
*973 FILLER_10_749
*974 FILLER_10_755
*975 FILLER_10_757
*976 FILLER_10_769
*977 FILLER_10_77
*978 FILLER_10_781
*979 FILLER_10_793
*980 FILLER_10_805
*981 FILLER_10_811
*982 FILLER_10_813
*983 FILLER_10_821
*984 FILLER_10_83
*985 FILLER_10_85
*986 FILLER_10_97
*987 FILLER_11_105
*988 FILLER_11_111
*989 FILLER_11_113
*990 FILLER_11_125
*991 FILLER_11_137
*992 FILLER_11_149
*993 FILLER_11_15
*994 FILLER_11_169
*995 FILLER_11_229
*996 FILLER_11_27
*997 FILLER_11_3
*998 FILLER_11_345
*999 FILLER_11_356
*1000 FILLER_11_388
*1001 FILLER_11_39
*1002 FILLER_11_403
*1003 FILLER_11_420
*1004 FILLER_11_432
*1005 FILLER_11_444
*1006 FILLER_11_449
*1007 FILLER_11_461
*1008 FILLER_11_473
*1009 FILLER_11_485
*1010 FILLER_11_497
*1011 FILLER_11_503
*1012 FILLER_11_505
*1013 FILLER_11_51
*1014 FILLER_11_517
*1015 FILLER_11_529
*1016 FILLER_11_541
*1017 FILLER_11_55
*1018 FILLER_11_553
*1019 FILLER_11_559
*1020 FILLER_11_561
*1021 FILLER_11_57
*1022 FILLER_11_573
*1023 FILLER_11_585
*1024 FILLER_11_597
*1025 FILLER_11_609
*1026 FILLER_11_615
*1027 FILLER_11_617
*1028 FILLER_11_629
*1029 FILLER_11_641
*1030 FILLER_11_653
*1031 FILLER_11_665
*1032 FILLER_11_671
*1033 FILLER_11_673
*1034 FILLER_11_685
*1035 FILLER_11_69
*1036 FILLER_11_697
*1037 FILLER_11_709
*1038 FILLER_11_721
*1039 FILLER_11_727
*1040 FILLER_11_729
*1041 FILLER_11_741
*1042 FILLER_11_753
*1043 FILLER_11_765
*1044 FILLER_11_777
*1045 FILLER_11_783
*1046 FILLER_11_785
*1047 FILLER_11_797
*1048 FILLER_11_809
*1049 FILLER_11_81
*1050 FILLER_11_821
*1051 FILLER_11_93
*1052 FILLER_12_103
*1053 FILLER_12_107
*1054 FILLER_12_119
*1055 FILLER_12_131
*1056 FILLER_12_139
*1057 FILLER_12_141
*1058 FILLER_12_149
*1059 FILLER_12_15
*1060 FILLER_12_159
*1061 FILLER_12_163
*1062 FILLER_12_197
*1063 FILLER_12_27
*1064 FILLER_12_280
*1065 FILLER_12_29
*1066 FILLER_12_290
*1067 FILLER_12_3
*1068 FILLER_12_309
*1069 FILLER_12_324
*1070 FILLER_12_336
*1071 FILLER_12_394
*1072 FILLER_12_398
*1073 FILLER_12_41
*1074 FILLER_12_415
*1075 FILLER_12_419
*1076 FILLER_12_421
*1077 FILLER_12_433
*1078 FILLER_12_445
*1079 FILLER_12_457
*1080 FILLER_12_469
*1081 FILLER_12_475
*1082 FILLER_12_477
*1083 FILLER_12_489
*1084 FILLER_12_501
*1085 FILLER_12_513
*1086 FILLER_12_525
*1087 FILLER_12_53
*1088 FILLER_12_531
*1089 FILLER_12_533
*1090 FILLER_12_545
*1091 FILLER_12_557
*1092 FILLER_12_569
*1093 FILLER_12_581
*1094 FILLER_12_587
*1095 FILLER_12_589
*1096 FILLER_12_601
*1097 FILLER_12_613
*1098 FILLER_12_625
*1099 FILLER_12_637
*1100 FILLER_12_643
*1101 FILLER_12_645
*1102 FILLER_12_65
*1103 FILLER_12_657
*1104 FILLER_12_669
*1105 FILLER_12_681
*1106 FILLER_12_693
*1107 FILLER_12_699
*1108 FILLER_12_701
*1109 FILLER_12_713
*1110 FILLER_12_725
*1111 FILLER_12_737
*1112 FILLER_12_749
*1113 FILLER_12_755
*1114 FILLER_12_757
*1115 FILLER_12_769
*1116 FILLER_12_77
*1117 FILLER_12_781
*1118 FILLER_12_793
*1119 FILLER_12_805
*1120 FILLER_12_811
*1121 FILLER_12_813
*1122 FILLER_12_821
*1123 FILLER_12_83
*1124 FILLER_12_85
*1125 FILLER_12_97
*1126 FILLER_13_105
*1127 FILLER_13_111
*1128 FILLER_13_113
*1129 FILLER_13_125
*1130 FILLER_13_137
*1131 FILLER_13_149
*1132 FILLER_13_15
*1133 FILLER_13_161
*1134 FILLER_13_167
*1135 FILLER_13_169
*1136 FILLER_13_177
*1137 FILLER_13_204
*1138 FILLER_13_225
*1139 FILLER_13_243
*1140 FILLER_13_27
*1141 FILLER_13_281
*1142 FILLER_13_3
*1143 FILLER_13_332
*1144 FILLER_13_337
*1145 FILLER_13_39
*1146 FILLER_13_401
*1147 FILLER_13_413
*1148 FILLER_13_425
*1149 FILLER_13_437
*1150 FILLER_13_445
*1151 FILLER_13_449
*1152 FILLER_13_461
*1153 FILLER_13_473
*1154 FILLER_13_485
*1155 FILLER_13_497
*1156 FILLER_13_503
*1157 FILLER_13_505
*1158 FILLER_13_51
*1159 FILLER_13_517
*1160 FILLER_13_529
*1161 FILLER_13_541
*1162 FILLER_13_55
*1163 FILLER_13_553
*1164 FILLER_13_559
*1165 FILLER_13_561
*1166 FILLER_13_57
*1167 FILLER_13_573
*1168 FILLER_13_585
*1169 FILLER_13_597
*1170 FILLER_13_609
*1171 FILLER_13_615
*1172 FILLER_13_617
*1173 FILLER_13_629
*1174 FILLER_13_641
*1175 FILLER_13_653
*1176 FILLER_13_665
*1177 FILLER_13_671
*1178 FILLER_13_673
*1179 FILLER_13_685
*1180 FILLER_13_69
*1181 FILLER_13_697
*1182 FILLER_13_709
*1183 FILLER_13_721
*1184 FILLER_13_727
*1185 FILLER_13_729
*1186 FILLER_13_741
*1187 FILLER_13_753
*1188 FILLER_13_765
*1189 FILLER_13_777
*1190 FILLER_13_783
*1191 FILLER_13_785
*1192 FILLER_13_797
*1193 FILLER_13_809
*1194 FILLER_13_81
*1195 FILLER_13_821
*1196 FILLER_13_93
*1197 FILLER_14_109
*1198 FILLER_14_121
*1199 FILLER_14_133
*1200 FILLER_14_139
*1201 FILLER_14_141
*1202 FILLER_14_15
*1203 FILLER_14_153
*1204 FILLER_14_165
*1205 FILLER_14_177
*1206 FILLER_14_195
*1207 FILLER_14_197
*1208 FILLER_14_203
*1209 FILLER_14_220
*1210 FILLER_14_251
*1211 FILLER_14_253
*1212 FILLER_14_27
*1213 FILLER_14_274
*1214 FILLER_14_29
*1215 FILLER_14_3
*1216 FILLER_14_309
*1217 FILLER_14_320
*1218 FILLER_14_334
*1219 FILLER_14_359
*1220 FILLER_14_363
*1221 FILLER_14_365
*1222 FILLER_14_384
*1223 FILLER_14_396
*1224 FILLER_14_408
*1225 FILLER_14_41
*1226 FILLER_14_421
*1227 FILLER_14_433
*1228 FILLER_14_445
*1229 FILLER_14_457
*1230 FILLER_14_469
*1231 FILLER_14_475
*1232 FILLER_14_477
*1233 FILLER_14_489
*1234 FILLER_14_501
*1235 FILLER_14_513
*1236 FILLER_14_525
*1237 FILLER_14_53
*1238 FILLER_14_531
*1239 FILLER_14_533
*1240 FILLER_14_545
*1241 FILLER_14_557
*1242 FILLER_14_569
*1243 FILLER_14_581
*1244 FILLER_14_587
*1245 FILLER_14_589
*1246 FILLER_14_601
*1247 FILLER_14_613
*1248 FILLER_14_625
*1249 FILLER_14_637
*1250 FILLER_14_643
*1251 FILLER_14_645
*1252 FILLER_14_65
*1253 FILLER_14_657
*1254 FILLER_14_669
*1255 FILLER_14_681
*1256 FILLER_14_693
*1257 FILLER_14_699
*1258 FILLER_14_701
*1259 FILLER_14_713
*1260 FILLER_14_725
*1261 FILLER_14_737
*1262 FILLER_14_749
*1263 FILLER_14_755
*1264 FILLER_14_757
*1265 FILLER_14_769
*1266 FILLER_14_77
*1267 FILLER_14_781
*1268 FILLER_14_793
*1269 FILLER_14_805
*1270 FILLER_14_811
*1271 FILLER_14_813
*1272 FILLER_14_821
*1273 FILLER_14_83
*1274 FILLER_14_85
*1275 FILLER_14_97
*1276 FILLER_15_105
*1277 FILLER_15_111
*1278 FILLER_15_113
*1279 FILLER_15_125
*1280 FILLER_15_137
*1281 FILLER_15_149
*1282 FILLER_15_15
*1283 FILLER_15_161
*1284 FILLER_15_167
*1285 FILLER_15_169
*1286 FILLER_15_181
*1287 FILLER_15_193
*1288 FILLER_15_210
*1289 FILLER_15_223
*1290 FILLER_15_254
*1291 FILLER_15_27
*1292 FILLER_15_271
*1293 FILLER_15_284
*1294 FILLER_15_3
*1295 FILLER_15_311
*1296 FILLER_15_316
*1297 FILLER_15_339
*1298 FILLER_15_366
*1299 FILLER_15_378
*1300 FILLER_15_39
*1301 FILLER_15_390
*1302 FILLER_15_393
*1303 FILLER_15_405
*1304 FILLER_15_417
*1305 FILLER_15_429
*1306 FILLER_15_441
*1307 FILLER_15_447
*1308 FILLER_15_449
*1309 FILLER_15_461
*1310 FILLER_15_473
*1311 FILLER_15_485
*1312 FILLER_15_497
*1313 FILLER_15_503
*1314 FILLER_15_505
*1315 FILLER_15_51
*1316 FILLER_15_517
*1317 FILLER_15_529
*1318 FILLER_15_541
*1319 FILLER_15_55
*1320 FILLER_15_553
*1321 FILLER_15_559
*1322 FILLER_15_561
*1323 FILLER_15_57
*1324 FILLER_15_573
*1325 FILLER_15_585
*1326 FILLER_15_597
*1327 FILLER_15_609
*1328 FILLER_15_615
*1329 FILLER_15_617
*1330 FILLER_15_629
*1331 FILLER_15_641
*1332 FILLER_15_653
*1333 FILLER_15_665
*1334 FILLER_15_671
*1335 FILLER_15_673
*1336 FILLER_15_685
*1337 FILLER_15_69
*1338 FILLER_15_697
*1339 FILLER_15_709
*1340 FILLER_15_721
*1341 FILLER_15_727
*1342 FILLER_15_729
*1343 FILLER_15_741
*1344 FILLER_15_753
*1345 FILLER_15_765
*1346 FILLER_15_777
*1347 FILLER_15_783
*1348 FILLER_15_785
*1349 FILLER_15_797
*1350 FILLER_15_809
*1351 FILLER_15_81
*1352 FILLER_15_821
*1353 FILLER_15_93
*1354 FILLER_16_109
*1355 FILLER_16_121
*1356 FILLER_16_133
*1357 FILLER_16_139
*1358 FILLER_16_141
*1359 FILLER_16_15
*1360 FILLER_16_153
*1361 FILLER_16_165
*1362 FILLER_16_177
*1363 FILLER_16_189
*1364 FILLER_16_195
*1365 FILLER_16_197
*1366 FILLER_16_209
*1367 FILLER_16_213
*1368 FILLER_16_27
*1369 FILLER_16_289
*1370 FILLER_16_29
*1371 FILLER_16_3
*1372 FILLER_16_307
*1373 FILLER_16_309
*1374 FILLER_16_320
*1375 FILLER_16_330
*1376 FILLER_16_336
*1377 FILLER_16_359
*1378 FILLER_16_363
*1379 FILLER_16_365
*1380 FILLER_16_377
*1381 FILLER_16_389
*1382 FILLER_16_401
*1383 FILLER_16_41
*1384 FILLER_16_413
*1385 FILLER_16_419
*1386 FILLER_16_421
*1387 FILLER_16_433
*1388 FILLER_16_445
*1389 FILLER_16_457
*1390 FILLER_16_469
*1391 FILLER_16_475
*1392 FILLER_16_477
*1393 FILLER_16_489
*1394 FILLER_16_501
*1395 FILLER_16_513
*1396 FILLER_16_525
*1397 FILLER_16_53
*1398 FILLER_16_531
*1399 FILLER_16_533
*1400 FILLER_16_545
*1401 FILLER_16_557
*1402 FILLER_16_569
*1403 FILLER_16_581
*1404 FILLER_16_587
*1405 FILLER_16_589
*1406 FILLER_16_601
*1407 FILLER_16_613
*1408 FILLER_16_625
*1409 FILLER_16_637
*1410 FILLER_16_643
*1411 FILLER_16_645
*1412 FILLER_16_65
*1413 FILLER_16_657
*1414 FILLER_16_669
*1415 FILLER_16_681
*1416 FILLER_16_693
*1417 FILLER_16_699
*1418 FILLER_16_701
*1419 FILLER_16_713
*1420 FILLER_16_725
*1421 FILLER_16_737
*1422 FILLER_16_749
*1423 FILLER_16_755
*1424 FILLER_16_757
*1425 FILLER_16_769
*1426 FILLER_16_77
*1427 FILLER_16_781
*1428 FILLER_16_793
*1429 FILLER_16_805
*1430 FILLER_16_811
*1431 FILLER_16_813
*1432 FILLER_16_821
*1433 FILLER_16_83
*1434 FILLER_16_85
*1435 FILLER_16_97
*1436 FILLER_17_105
*1437 FILLER_17_111
*1438 FILLER_17_113
*1439 FILLER_17_125
*1440 FILLER_17_137
*1441 FILLER_17_149
*1442 FILLER_17_15
*1443 FILLER_17_161
*1444 FILLER_17_167
*1445 FILLER_17_169
*1446 FILLER_17_181
*1447 FILLER_17_193
*1448 FILLER_17_205
*1449 FILLER_17_217
*1450 FILLER_17_223
*1451 FILLER_17_227
*1452 FILLER_17_238
*1453 FILLER_17_254
*1454 FILLER_17_260
*1455 FILLER_17_266
*1456 FILLER_17_27
*1457 FILLER_17_275
*1458 FILLER_17_279
*1459 FILLER_17_281
*1460 FILLER_17_3
*1461 FILLER_17_301
*1462 FILLER_17_315
*1463 FILLER_17_327
*1464 FILLER_17_335
*1465 FILLER_17_344
*1466 FILLER_17_356
*1467 FILLER_17_368
*1468 FILLER_17_380
*1469 FILLER_17_39
*1470 FILLER_17_393
*1471 FILLER_17_405
*1472 FILLER_17_417
*1473 FILLER_17_429
*1474 FILLER_17_441
*1475 FILLER_17_447
*1476 FILLER_17_449
*1477 FILLER_17_461
*1478 FILLER_17_473
*1479 FILLER_17_485
*1480 FILLER_17_497
*1481 FILLER_17_503
*1482 FILLER_17_505
*1483 FILLER_17_51
*1484 FILLER_17_517
*1485 FILLER_17_529
*1486 FILLER_17_541
*1487 FILLER_17_55
*1488 FILLER_17_553
*1489 FILLER_17_559
*1490 FILLER_17_561
*1491 FILLER_17_57
*1492 FILLER_17_573
*1493 FILLER_17_585
*1494 FILLER_17_597
*1495 FILLER_17_609
*1496 FILLER_17_615
*1497 FILLER_17_617
*1498 FILLER_17_629
*1499 FILLER_17_641
*1500 FILLER_17_653
*1501 FILLER_17_665
*1502 FILLER_17_671
*1503 FILLER_17_673
*1504 FILLER_17_685
*1505 FILLER_17_69
*1506 FILLER_17_697
*1507 FILLER_17_709
*1508 FILLER_17_721
*1509 FILLER_17_727
*1510 FILLER_17_729
*1511 FILLER_17_741
*1512 FILLER_17_753
*1513 FILLER_17_765
*1514 FILLER_17_777
*1515 FILLER_17_783
*1516 FILLER_17_785
*1517 FILLER_17_797
*1518 FILLER_17_809
*1519 FILLER_17_81
*1520 FILLER_17_821
*1521 FILLER_17_93
*1522 FILLER_18_109
*1523 FILLER_18_121
*1524 FILLER_18_133
*1525 FILLER_18_139
*1526 FILLER_18_141
*1527 FILLER_18_15
*1528 FILLER_18_153
*1529 FILLER_18_165
*1530 FILLER_18_177
*1531 FILLER_18_189
*1532 FILLER_18_195
*1533 FILLER_18_197
*1534 FILLER_18_209
*1535 FILLER_18_221
*1536 FILLER_18_233
*1537 FILLER_18_245
*1538 FILLER_18_251
*1539 FILLER_18_253
*1540 FILLER_18_265
*1541 FILLER_18_27
*1542 FILLER_18_277
*1543 FILLER_18_289
*1544 FILLER_18_29
*1545 FILLER_18_3
*1546 FILLER_18_301
*1547 FILLER_18_307
*1548 FILLER_18_309
*1549 FILLER_18_321
*1550 FILLER_18_333
*1551 FILLER_18_345
*1552 FILLER_18_357
*1553 FILLER_18_363
*1554 FILLER_18_365
*1555 FILLER_18_377
*1556 FILLER_18_389
*1557 FILLER_18_401
*1558 FILLER_18_41
*1559 FILLER_18_413
*1560 FILLER_18_419
*1561 FILLER_18_421
*1562 FILLER_18_433
*1563 FILLER_18_445
*1564 FILLER_18_457
*1565 FILLER_18_469
*1566 FILLER_18_475
*1567 FILLER_18_477
*1568 FILLER_18_489
*1569 FILLER_18_501
*1570 FILLER_18_513
*1571 FILLER_18_525
*1572 FILLER_18_53
*1573 FILLER_18_531
*1574 FILLER_18_533
*1575 FILLER_18_545
*1576 FILLER_18_557
*1577 FILLER_18_569
*1578 FILLER_18_581
*1579 FILLER_18_587
*1580 FILLER_18_589
*1581 FILLER_18_601
*1582 FILLER_18_613
*1583 FILLER_18_625
*1584 FILLER_18_637
*1585 FILLER_18_643
*1586 FILLER_18_645
*1587 FILLER_18_65
*1588 FILLER_18_657
*1589 FILLER_18_669
*1590 FILLER_18_681
*1591 FILLER_18_693
*1592 FILLER_18_699
*1593 FILLER_18_701
*1594 FILLER_18_713
*1595 FILLER_18_725
*1596 FILLER_18_737
*1597 FILLER_18_749
*1598 FILLER_18_755
*1599 FILLER_18_757
*1600 FILLER_18_769
*1601 FILLER_18_77
*1602 FILLER_18_781
*1603 FILLER_18_793
*1604 FILLER_18_805
*1605 FILLER_18_811
*1606 FILLER_18_813
*1607 FILLER_18_821
*1608 FILLER_18_83
*1609 FILLER_18_85
*1610 FILLER_18_97
*1611 FILLER_19_105
*1612 FILLER_19_111
*1613 FILLER_19_113
*1614 FILLER_19_125
*1615 FILLER_19_137
*1616 FILLER_19_149
*1617 FILLER_19_15
*1618 FILLER_19_161
*1619 FILLER_19_167
*1620 FILLER_19_169
*1621 FILLER_19_181
*1622 FILLER_19_193
*1623 FILLER_19_205
*1624 FILLER_19_217
*1625 FILLER_19_223
*1626 FILLER_19_225
*1627 FILLER_19_237
*1628 FILLER_19_249
*1629 FILLER_19_261
*1630 FILLER_19_27
*1631 FILLER_19_273
*1632 FILLER_19_279
*1633 FILLER_19_281
*1634 FILLER_19_293
*1635 FILLER_19_3
*1636 FILLER_19_305
*1637 FILLER_19_317
*1638 FILLER_19_329
*1639 FILLER_19_335
*1640 FILLER_19_337
*1641 FILLER_19_349
*1642 FILLER_19_361
*1643 FILLER_19_373
*1644 FILLER_19_385
*1645 FILLER_19_39
*1646 FILLER_19_391
*1647 FILLER_19_393
*1648 FILLER_19_405
*1649 FILLER_19_417
*1650 FILLER_19_429
*1651 FILLER_19_441
*1652 FILLER_19_447
*1653 FILLER_19_449
*1654 FILLER_19_461
*1655 FILLER_19_473
*1656 FILLER_19_485
*1657 FILLER_19_497
*1658 FILLER_19_503
*1659 FILLER_19_505
*1660 FILLER_19_51
*1661 FILLER_19_517
*1662 FILLER_19_529
*1663 FILLER_19_541
*1664 FILLER_19_55
*1665 FILLER_19_553
*1666 FILLER_19_559
*1667 FILLER_19_561
*1668 FILLER_19_57
*1669 FILLER_19_573
*1670 FILLER_19_585
*1671 FILLER_19_597
*1672 FILLER_19_609
*1673 FILLER_19_615
*1674 FILLER_19_617
*1675 FILLER_19_629
*1676 FILLER_19_641
*1677 FILLER_19_653
*1678 FILLER_19_665
*1679 FILLER_19_671
*1680 FILLER_19_673
*1681 FILLER_19_685
*1682 FILLER_19_69
*1683 FILLER_19_697
*1684 FILLER_19_709
*1685 FILLER_19_721
*1686 FILLER_19_727
*1687 FILLER_19_729
*1688 FILLER_19_741
*1689 FILLER_19_753
*1690 FILLER_19_765
*1691 FILLER_19_777
*1692 FILLER_19_783
*1693 FILLER_19_785
*1694 FILLER_19_797
*1695 FILLER_19_809
*1696 FILLER_19_81
*1697 FILLER_19_821
*1698 FILLER_19_93
*1699 FILLER_1_11
*1700 FILLER_1_113
*1701 FILLER_1_171
*1702 FILLER_1_20
*1703 FILLER_1_3
*1704 FILLER_1_334
*1705 FILLER_1_369
*1706 FILLER_1_391
*1707 FILLER_1_393
*1708 FILLER_1_438
*1709 FILLER_1_505
*1710 FILLER_1_541
*1711 FILLER_1_564
*1712 FILLER_1_589
*1713 FILLER_1_597
*1714 FILLER_1_610
*1715 FILLER_1_617
*1716 FILLER_1_626
*1717 FILLER_1_665
*1718 FILLER_1_671
*1719 FILLER_1_673
*1720 FILLER_1_709
*1721 FILLER_1_732
*1722 FILLER_1_757
*1723 FILLER_1_774
*1724 FILLER_1_782
*1725 FILLER_1_820
*1726 FILLER_20_109
*1727 FILLER_20_121
*1728 FILLER_20_133
*1729 FILLER_20_139
*1730 FILLER_20_141
*1731 FILLER_20_15
*1732 FILLER_20_153
*1733 FILLER_20_165
*1734 FILLER_20_177
*1735 FILLER_20_189
*1736 FILLER_20_195
*1737 FILLER_20_197
*1738 FILLER_20_209
*1739 FILLER_20_221
*1740 FILLER_20_233
*1741 FILLER_20_245
*1742 FILLER_20_251
*1743 FILLER_20_253
*1744 FILLER_20_265
*1745 FILLER_20_27
*1746 FILLER_20_277
*1747 FILLER_20_289
*1748 FILLER_20_29
*1749 FILLER_20_3
*1750 FILLER_20_301
*1751 FILLER_20_307
*1752 FILLER_20_309
*1753 FILLER_20_321
*1754 FILLER_20_333
*1755 FILLER_20_345
*1756 FILLER_20_357
*1757 FILLER_20_363
*1758 FILLER_20_365
*1759 FILLER_20_377
*1760 FILLER_20_389
*1761 FILLER_20_401
*1762 FILLER_20_41
*1763 FILLER_20_413
*1764 FILLER_20_419
*1765 FILLER_20_421
*1766 FILLER_20_433
*1767 FILLER_20_445
*1768 FILLER_20_457
*1769 FILLER_20_469
*1770 FILLER_20_475
*1771 FILLER_20_477
*1772 FILLER_20_489
*1773 FILLER_20_501
*1774 FILLER_20_513
*1775 FILLER_20_525
*1776 FILLER_20_53
*1777 FILLER_20_531
*1778 FILLER_20_533
*1779 FILLER_20_545
*1780 FILLER_20_557
*1781 FILLER_20_569
*1782 FILLER_20_581
*1783 FILLER_20_587
*1784 FILLER_20_589
*1785 FILLER_20_601
*1786 FILLER_20_613
*1787 FILLER_20_625
*1788 FILLER_20_637
*1789 FILLER_20_643
*1790 FILLER_20_645
*1791 FILLER_20_65
*1792 FILLER_20_657
*1793 FILLER_20_669
*1794 FILLER_20_681
*1795 FILLER_20_693
*1796 FILLER_20_699
*1797 FILLER_20_701
*1798 FILLER_20_713
*1799 FILLER_20_725
*1800 FILLER_20_737
*1801 FILLER_20_749
*1802 FILLER_20_755
*1803 FILLER_20_757
*1804 FILLER_20_769
*1805 FILLER_20_77
*1806 FILLER_20_781
*1807 FILLER_20_793
*1808 FILLER_20_805
*1809 FILLER_20_811
*1810 FILLER_20_813
*1811 FILLER_20_821
*1812 FILLER_20_83
*1813 FILLER_20_85
*1814 FILLER_20_97
*1815 FILLER_21_105
*1816 FILLER_21_111
*1817 FILLER_21_113
*1818 FILLER_21_125
*1819 FILLER_21_137
*1820 FILLER_21_149
*1821 FILLER_21_15
*1822 FILLER_21_161
*1823 FILLER_21_167
*1824 FILLER_21_169
*1825 FILLER_21_181
*1826 FILLER_21_193