*SPEF "ieee 1481-1999"
*DESIGN "ahb_counter"
*DATE "10:36:17 Tuesday February 25, 2025"
*VENDOR "The OpenROAD Project"
*PROGRAM "OpenROAD"
*VERSION "edf00dff99f6c40d67a30c0e22a8191c5d2ed9d6"
*DESIGN_FLOW "NAME_SCOPE LOCAL" "PIN_CAP NONE"
*DIVIDER /
*DELIMITER :
*BUS_DELIMITER []
*T_UNIT 1 NS
*C_UNIT 1 PF
*R_UNIT 1 OHM
*L_UNIT 1 HENRY

*NAME_MAP
*1 HADDR[0]
*2 HADDR[10]
*3 HADDR[11]
*4 HADDR[12]
*5 HADDR[13]
*6 HADDR[14]
*7 HADDR[15]
*8 HADDR[16]
*9 HADDR[17]
*10 HADDR[18]
*11 HADDR[19]
*12 HADDR[1]
*13 HADDR[20]
*14 HADDR[21]
*15 HADDR[22]
*16 HADDR[23]
*17 HADDR[24]
*18 HADDR[25]
*19 HADDR[26]
*20 HADDR[27]
*21 HADDR[28]
*22 HADDR[29]
*23 HADDR[2]
*24 HADDR[30]
*25 HADDR[31]
*26 HADDR[3]
*27 HADDR[4]
*28 HADDR[5]
*29 HADDR[6]
*30 HADDR[7]
*31 HADDR[8]
*32 HADDR[9]
*33 HCLK
*34 HRDATA[0]
*35 HRDATA[10]
*36 HRDATA[11]
*37 HRDATA[12]
*38 HRDATA[13]
*39 HRDATA[14]
*40 HRDATA[15]
*41 HRDATA[16]
*42 net116
*43 HRDATA[18]
*44 HRDATA[19]
*45 HRDATA[1]
*46 net117
*47 HRDATA[21]
*48 net118
*49 HRDATA[23]
*50 net119
*51 HRDATA[25]
*52 HRDATA[26]
*53 HRDATA[27]
*54 HRDATA[28]
*55 net120
*56 HRDATA[2]
*57 HRDATA[30]
*58 HRDATA[31]
*59 HRDATA[3]
*60 HRDATA[4]
*61 HRDATA[5]
*62 HRDATA[6]
*63 HRDATA[7]
*64 HRDATA[8]
*65 HRDATA[9]
*66 HREADY
*67 net121
*68 HRESETn
*69 HSEL
*70 HSIZE[0]
*71 HSIZE[1]
*72 HSIZE[2]
*73 HTRANS[0]
*74 HTRANS[1]
*75 HWDATA[0]
*76 HWDATA[10]
*77 HWDATA[11]
*78 HWDATA[12]
*79 HWDATA[13]
*80 HWDATA[14]
*81 HWDATA[15]
*82 HWDATA[16]
*83 HWDATA[17]
*84 HWDATA[18]
*85 HWDATA[19]
*86 HWDATA[1]
*87 HWDATA[20]
*88 HWDATA[21]
*89 HWDATA[22]
*90 HWDATA[23]
*91 HWDATA[24]
*92 HWDATA[25]
*93 HWDATA[26]
*94 HWDATA[27]
*95 HWDATA[28]
*96 HWDATA[29]
*97 HWDATA[2]
*98 HWDATA[30]
*99 HWDATA[31]
*100 HWDATA[3]
*101 HWDATA[4]
*102 HWDATA[5]
*103 HWDATA[6]
*104 HWDATA[7]
*105 HWDATA[8]
*106 HWDATA[9]
*107 HWRITE
*108 gpio_oeb[0]
*109 gpio_oeb[10]
*110 gpio_oeb[11]
*111 gpio_oeb[12]
*112 gpio_oeb[13]
*113 gpio_oeb[14]
*114 gpio_oeb[15]
*115 gpio_oeb[1]
*116 gpio_oeb[2]
*117 gpio_oeb[3]
*118 gpio_oeb[4]
*119 gpio_oeb[5]
*120 gpio_oeb[6]
*121 gpio_oeb[7]
*122 gpio_oeb[8]
*123 gpio_oeb[9]
*124 gpio_out[0]
*125 gpio_out[10]
*126 gpio_out[11]
*127 gpio_out[12]
*128 gpio_out[13]
*129 gpio_out[14]
*130 gpio_out[15]
*131 gpio_out[1]
*132 gpio_out[2]
*133 gpio_out[3]
*134 gpio_out[4]
*135 gpio_out[5]
*136 gpio_out[6]
*137 gpio_out[7]
*138 gpio_out[8]
*139 gpio_out[9]
*142 CTRL_REG
*143 _000_
*144 _001_
*145 _002_
*146 _003_
*147 _004_
*148 _005_
*149 _006_
*150 _007_
*151 _008_
*152 _009_
*153 _010_
*154 _011_
*155 _012_
*156 _013_
*157 _014_
*158 _015_
*159 _016_
*160 _017_
*161 _018_
*162 _019_
*163 _020_
*164 _021_
*165 _022_
*166 _023_
*167 _024_
*168 _025_
*169 _026_
*170 _027_
*171 _028_
*172 _029_
*173 _030_
*174 _031_
*175 _032_
*176 _033_
*177 _034_
*178 _035_
*179 _036_
*180 _037_
*181 _038_
*182 _039_
*183 _040_
*184 _041_
*185 _042_
*186 _043_
*187 _044_
*188 _045_
*189 _046_
*190 _047_
*191 _048_
*192 _049_
*193 _050_
*194 _051_
*195 _052_
*196 _053_
*197 _054_
*198 _055_
*199 _056_
*200 _057_
*201 _058_
*202 _059_
*203 _060_
*204 _061_
*205 _062_
*206 _063_
*207 _064_
*208 _065_
*209 _066_
*210 _067_
*211 _068_
*212 _069_
*213 _070_
*214 _071_
*215 _072_
*216 _073_
*217 _074_
*218 _075_
*219 _076_
*220 _077_
*221 _078_
*222 _079_
*223 _080_
*224 _081_
*225 _082_
*226 _083_
*227 _084_
*228 _085_
*229 _086_
*230 _087_
*231 _088_
*232 _089_
*233 _090_
*234 _091_
*235 _092_
*236 _093_
*237 _094_
*238 _095_
*239 _096_
*240 _097_
*241 _098_
*242 clknet_0_HCLK
*243 clknet_2_0__leaf_HCLK
*244 clknet_2_1__leaf_HCLK
*245 clknet_2_2__leaf_HCLK
*246 clknet_2_3__leaf_HCLK
*247 last_HADDR\[0\]
*248 last_HADDR\[10\]
*249 last_HADDR\[11\]
*250 last_HADDR\[12\]
*251 last_HADDR\[13\]
*252 last_HADDR\[14\]
*253 last_HADDR\[15\]
*254 last_HADDR\[1\]
*255 last_HADDR\[2\]
*256 last_HADDR\[3\]
*257 last_HADDR\[4\]
*258 last_HADDR\[5\]
*259 last_HADDR\[6\]
*260 last_HADDR\[7\]
*261 last_HADDR\[8\]
*262 last_HADDR\[9\]
*263 last_HSEL
*264 last_HTRANS\[1\]
*265 last_HWRITE
*266 net1
*267 net10
*268 net100
*269 net101
*270 net102
*271 net103
*272 net104
*273 net105
*274 net106
*275 net107
*276 net108
*277 net109
*278 net11
*279 net110
*280 net111
*281 net112
*282 net113
*283 net114
*284 net115
*285 net12
*286 net122
*287 net123
*288 net124
*289 net125
*290 net126
*291 net127
*292 net128
*293 net129
*294 net13
*295 net130
*296 net131
*297 net132
*298 net133
*299 net134
*300 net135
*301 net136
*302 net137
*303 net138
*304 net139
*305 net14
*306 net140
*307 net141
*308 net142
*309 net143
*310 net144
*311 net145
*312 net146
*313 net147
*314 net148
*315 net149
*316 net15
*317 net150
*318 net151
*319 net152
*320 net153
*321 net154
*322 net155
*323 net156
*324 net157
*325 net158
*326 net159
*327 net16
*328 net160
*329 net161
*330 net162
*331 net163
*332 net164
*333 net165
*334 net166
*335 net167
*336 net168
*337 net169
*338 net17
*339 net170
*340 net171
*341 net172
*342 net173
*343 net174
*344 net175
*345 net176
*346 net177
*347 net178
*348 net179
*349 net18
*350 net180
*351 net181
*352 net182
*353 net183
*354 net184
*355 net185
*356 net186
*357 net187
*358 net188
*359 net189
*360 net19
*361 net190
*362 net191
*363 net192
*364 net193
*365 net194
*366 net195
*367 net196
*368 net197
*369 net198
*370 net199
*371 net2
*372 net20
*373 net200
*374 net201
*375 net202
*376 net203
*377 net204
*378 net205
*379 net206
*380 net207
*381 net208
*382 net209
*383 net21
*384 net210
*385 net211
*386 net212
*387 net213
*388 net214
*389 net215
*390 net216
*391 net217
*392 net218
*393 net219
*394 net22
*395 net220
*396 net221
*397 net222
*398 net223
*399 net224
*400 net225
*401 net226
*402 net227
*403 net228
*404 net229
*405 net23
*406 net230
*407 net231
*408 net232
*409 net233
*410 net234
*411 net235
*412 net236
*413 net237
*414 net238
*415 net239
*416 net24
*417 net240
*418 net241
*419 net242
*420 net243
*421 net244
*422 net245
*423 net246
*424 net247
*425 net248
*426 net249
*427 net25
*428 net250
*429 net251
*430 net252
*431 net253
*432 net254
*433 net255
*434 net256
*435 net257
*436 net258
*437 net259
*438 net26
*439 net260
*440 net261
*441 net262
*442 net263
*443 net264
*444 net265
*445 net266
*446 net267
*447 net268
*448 net269
*449 net27
*450 net270
*451 net271
*452 net272
*453 net273
*454 net274
*455 net275
*456 net276
*457 net277
*458 net278
*459 net279
*460 net28
*461 net280
*462 net281
*463 net282
*464 net283
*465 net284
*466 net285
*467 net287
*468 net289
*469 net29
*470 net290
*471 net291
*472 net292
*473 net295
*474 net296
*475 net297
*476 net298
*477 net299
*478 net3
*479 net30
*480 net300
*481 net302
*482 net305
*483 net306
*484 net307
*485 net31
*486 net312
*487 net313
*488 net314
*489 net318
*490 net32
*491 net320
*492 net321
*493 net327
*494 net328
*495 net33
*496 net334
*497 net335
*498 net34
*499 net341
*500 net342
*501 net348
*502 net349
*503 net35
*504 net355
*505 net356
*506 net357
*507 net358
*508 net359
*509 net36
*510 net360
*511 net366
*512 net367
*513 net368
*514 net37
*515 net373
*516 net374
*517 net376
*518 net377
*519 net378
*520 net379
*521 net38
*522 net380
*523 net381
*524 net383
*525 net384
*526 net385
*527 net386
*528 net387
*529 net39
*530 net390
*531 net391
*532 net392
*533 net393
*534 net394
*535 net395
*536 net396
*537 net397
*538 net398
*539 net399
*540 net4
*541 net40
*542 net400
*543 net401
*544 net402
*545 net403
*546 net404
*547 net405
*548 net406
*549 net407
*550 net408
*551 net409
*552 net41
*553 net410
*554 net411
*555 net412
*556 net413
*557 net414
*558 net415
*559 net416
*560 net417
*561 net418
*562 net419
*563 net42
*564 net420
*565 net421
*566 net422
*567 net423
*568 net424
*569 net425
*570 net426
*571 net427
*572 net428
*573 net429
*574 net43
*575 net430
*576 net431
*577 net432
*578 net434
*579 net435
*580 net436
*581 net437
*582 net438
*583 net439
*584 net44
*585 net441
*586 net442
*587 net443
*588 net444
*589 net445
*590 net446
*591 net447
*592 net448
*593 net449
*594 net45
*595 net450
*596 net451
*597 net452
*598 net453
*599 net454
*600 net455
*601 net456
*602 net457
*603 net458
*604 net459
*605 net46
*606 net460
*607 net461
*608 net462
*609 net463
*610 net464
*611 net465
*612 net466
*613 net467
*614 net468
*615 net469
*616 net47
*617 net470
*618 net471
*619 net472
*620 net473
*621 net474
*622 net475
*623 net476
*624 net477
*625 net478
*626 net479
*627 net48
*628 net480
*629 net481
*630 net482
*631 net483
*632 net484
*633 net485
*634 net486
*635 net487
*636 net488
*637 net489
*638 net49
*639 net493
*640 net494
*641 net495
*642 net499
*643 net5
*644 net50
*645 net500
*646 net501
*647 net505
*648 net506
*649 net507
*650 net51
*651 net511
*652 net512
*653 net515
*654 net516
*655 net517
*656 net518
*657 net519
*658 net52
*659 net521
*660 net522
*661 net526
*662 net527
*663 net53
*664 net531
*665 net532
*666 net533
*667 net534
*668 net535
*669 net536
*670 net539
*671 net54
*672 net540
*673 net541
*674 net542
*675 net543
*676 net544
*677 net545
*678 net546
*679 net547
*680 net548
*681 net549
*682 net55
*683 net550
*684 net551
*685 net552
*686 net553
*687 net554
*688 net555
*689 net556
*690 net557
*691 net558
*692 net559
*693 net56
*694 net560
*695 net561
*696 net562
*697 net563
*698 net564
*699 net565
*700 net566
*701 net567
*702 net568
*703 net569
*704 net57
*705 net570
*706 net571
*707 net572
*708 net573
*709 net574
*710 net575
*711 net576
*712 net577
*713 net58
*714 net581
*715 net582
*716 net583
*717 net584
*718 net585
*719 net586
*720 net587
*721 net588
*722 net589
*723 net59
*724 net590
*725 net591
*726 net592
*727 net593
*728 net595
*729 net598
*730 net599
*731 net6
*732 net60
*733 net600
*734 net601
*735 net602
*736 net603
*737 net604
*738 net605
*739 net606
*740 net607
*741 net608
*742 net609
*743 net61
*744 net610
*745 net611
*746 net612
*747 net613
*748 net62
*749 net63
*750 net64
*751 net65
*752 net652
*753 net653
*754 net66
*755 net67
*756 net674
*757 net675
*758 net68
*759 net69
*760 net7
*761 net70
*762 net704
*763 net705
*764 net71
*765 net72
*766 net73
*767 net74
*768 net75
*769 net758
*770 net759
*771 net76
*772 net77
*773 net78
*774 net786
*775 net787
*776 net788
*777 net79
*778 net8
*779 net80
*780 net81
*781 net816
*782 net817
*783 net818
*784 net82
*785 net83
*786 net84
*787 net85
*788 net86
*789 net87
*790 net88
*791 net89
*792 net9
*793 net90
*794 net91
*795 net92
*796 net93
*797 net94
*798 net95
*799 net96
*800 net97
*801 net98
*802 net99
*803 ANTENNA_1
*804 ANTENNA_10
*805 ANTENNA_11
*806 ANTENNA_12
*807 ANTENNA_13
*808 ANTENNA_14
*809 ANTENNA_15
*810 ANTENNA_16
*811 ANTENNA_17
*812 ANTENNA_18
*813 ANTENNA_19
*814 ANTENNA_2
*815 ANTENNA_20
*816 ANTENNA_21
*817 ANTENNA_22
*818 ANTENNA_23
*819 ANTENNA_24
*820 ANTENNA_25
*821 ANTENNA_26
*822 ANTENNA_27
*823 ANTENNA_28
*824 ANTENNA_29
*825 ANTENNA_3
*826 ANTENNA_30
*827 ANTENNA_31
*828 ANTENNA_32
*829 ANTENNA_4
*830 ANTENNA_5
*831 ANTENNA_6
*832 ANTENNA_7
*833 ANTENNA_8
*834 ANTENNA_9
*835 FILLER_0_109
*836 FILLER_0_15
*837 FILLER_0_3
*838 FILLER_0_309
*839 FILLER_0_337
*840 FILLER_0_410
*841 FILLER_0_474
*842 FILLER_0_533
*843 FILLER_0_555
*844 FILLER_0_559
*845 FILLER_0_57
*846 FILLER_0_577
*847 FILLER_0_584
*848 FILLER_0_589
*849 FILLER_0_597
*850 FILLER_0_633
*851 FILLER_0_641
*852 FILLER_0_661
*853 FILLER_0_668
*854 FILLER_0_673
*855 FILLER_0_681
*856 FILLER_0_701
*857 FILLER_0_723
*858 FILLER_0_727
*859 FILLER_0_745
*860 FILLER_0_749
*861 FILLER_0_755
*862 FILLER_0_785
*863 FILLER_0_807
*864 FILLER_0_811
*865 FILLER_0_821
*866 FILLER_0_85
*867 FILLER_10_109
*868 FILLER_10_121
*869 FILLER_10_133
*870 FILLER_10_141
*871 FILLER_10_15
*872 FILLER_10_166
*873 FILLER_10_194
*874 FILLER_10_197
*875 FILLER_10_216
*876 FILLER_10_253
*877 FILLER_10_27
*878 FILLER_10_29
*879 FILLER_10_3
*880 FILLER_10_368
*881 FILLER_10_400
*882 FILLER_10_41
*883 FILLER_10_421
*884 FILLER_10_433
*885 FILLER_10_445
*886 FILLER_10_457
*887 FILLER_10_469
*888 FILLER_10_475
*889 FILLER_10_477
*890 FILLER_10_489
*891 FILLER_10_501
*892 FILLER_10_513
*893 FILLER_10_525
*894 FILLER_10_53
*895 FILLER_10_531
*896 FILLER_10_533
*897 FILLER_10_545
*898 FILLER_10_557
*899 FILLER_10_569
*900 FILLER_10_581
*901 FILLER_10_587
*902 FILLER_10_589
*903 FILLER_10_601
*904 FILLER_10_613
*905 FILLER_10_625
*906 FILLER_10_637
*907 FILLER_10_643
*908 FILLER_10_645
*909 FILLER_10_65
*910 FILLER_10_657
*911 FILLER_10_669
*912 FILLER_10_681
*913 FILLER_10_693
*914 FILLER_10_699
*915 FILLER_10_701
*916 FILLER_10_713
*917 FILLER_10_725
*918 FILLER_10_737
*919 FILLER_10_749
*920 FILLER_10_755
*921 FILLER_10_757
*922 FILLER_10_769
*923 FILLER_10_77
*924 FILLER_10_781
*925 FILLER_10_793
*926 FILLER_10_805
*927 FILLER_10_811
*928 FILLER_10_813
*929 FILLER_10_821
*930 FILLER_10_83
*931 FILLER_10_85
*932 FILLER_10_97
*933 FILLER_11_105
*934 FILLER_11_111
*935 FILLER_11_113
*936 FILLER_11_125
*937 FILLER_11_137
*938 FILLER_11_145
*939 FILLER_11_15
*940 FILLER_11_154
*941 FILLER_11_158
*942 FILLER_11_167
*943 FILLER_11_169
*944 FILLER_11_190
*945 FILLER_11_225
*946 FILLER_11_236
*947 FILLER_11_262
*948 FILLER_11_27
*949 FILLER_11_3
*950 FILLER_11_327
*951 FILLER_11_340
*952 FILLER_11_387
*953 FILLER_11_39
*954 FILLER_11_391
*955 FILLER_11_401
*956 FILLER_11_423
*957 FILLER_11_435
*958 FILLER_11_447
*959 FILLER_11_449
*960 FILLER_11_461
*961 FILLER_11_473
*962 FILLER_11_485
*963 FILLER_11_497
*964 FILLER_11_503
*965 FILLER_11_505
*966 FILLER_11_51
*967 FILLER_11_517
*968 FILLER_11_529
*969 FILLER_11_541
*970 FILLER_11_55
*971 FILLER_11_553
*972 FILLER_11_559
*973 FILLER_11_561
*974 FILLER_11_57
*975 FILLER_11_573
*976 FILLER_11_585
*977 FILLER_11_597
*978 FILLER_11_609
*979 FILLER_11_615
*980 FILLER_11_617
*981 FILLER_11_629
*982 FILLER_11_641
*983 FILLER_11_653
*984 FILLER_11_665
*985 FILLER_11_671
*986 FILLER_11_673
*987 FILLER_11_685
*988 FILLER_11_69
*989 FILLER_11_697
*990 FILLER_11_709
*991 FILLER_11_721
*992 FILLER_11_727
*993 FILLER_11_729
*994 FILLER_11_741
*995 FILLER_11_753
*996 FILLER_11_765
*997 FILLER_11_777
*998 FILLER_11_783
*999 FILLER_11_785
*1000 FILLER_11_797
*1001 FILLER_11_809
*1002 FILLER_11_81
*1003 FILLER_11_821
*1004 FILLER_11_93
*1005 FILLER_12_108
*1006 FILLER_12_120
*1007 FILLER_12_132
*1008 FILLER_12_141
*1009 FILLER_12_15
*1010 FILLER_12_153
*1011 FILLER_12_176
*1012 FILLER_12_224
*1013 FILLER_12_255
*1014 FILLER_12_27
*1015 FILLER_12_29
*1016 FILLER_12_299
*1017 FILLER_12_3
*1018 FILLER_12_339
*1019 FILLER_12_360
*1020 FILLER_12_381
*1021 FILLER_12_402
*1022 FILLER_12_41
*1023 FILLER_12_414
*1024 FILLER_12_421
*1025 FILLER_12_433
*1026 FILLER_12_445
*1027 FILLER_12_457
*1028 FILLER_12_469
*1029 FILLER_12_475
*1030 FILLER_12_477
*1031 FILLER_12_489
*1032 FILLER_12_501
*1033 FILLER_12_513
*1034 FILLER_12_525
*1035 FILLER_12_53
*1036 FILLER_12_531
*1037 FILLER_12_533
*1038 FILLER_12_545
*1039 FILLER_12_557
*1040 FILLER_12_569
*1041 FILLER_12_581
*1042 FILLER_12_587
*1043 FILLER_12_589
*1044 FILLER_12_601
*1045 FILLER_12_613
*1046 FILLER_12_625
*1047 FILLER_12_637
*1048 FILLER_12_643
*1049 FILLER_12_645
*1050 FILLER_12_65
*1051 FILLER_12_657
*1052 FILLER_12_669
*1053 FILLER_12_681
*1054 FILLER_12_693
*1055 FILLER_12_699
*1056 FILLER_12_701
*1057 FILLER_12_713
*1058 FILLER_12_725
*1059 FILLER_12_737
*1060 FILLER_12_749
*1061 FILLER_12_755
*1062 FILLER_12_757
*1063 FILLER_12_769
*1064 FILLER_12_77
*1065 FILLER_12_781
*1066 FILLER_12_793
*1067 FILLER_12_805
*1068 FILLER_12_811
*1069 FILLER_12_813
*1070 FILLER_12_821
*1071 FILLER_12_83
*1072 FILLER_12_85
*1073 FILLER_12_97
*1074 FILLER_13_105
*1075 FILLER_13_111
*1076 FILLER_13_113
*1077 FILLER_13_125
*1078 FILLER_13_137
*1079 FILLER_13_149
*1080 FILLER_13_15
*1081 FILLER_13_161
*1082 FILLER_13_167
*1083 FILLER_13_169
*1084 FILLER_13_211
*1085 FILLER_13_262
*1086 FILLER_13_27
*1087 FILLER_13_274
*1088 FILLER_13_3
*1089 FILLER_13_360
*1090 FILLER_13_385
*1091 FILLER_13_39
*1092 FILLER_13_391
*1093 FILLER_13_401
*1094 FILLER_13_413
*1095 FILLER_13_425
*1096 FILLER_13_437
*1097 FILLER_13_445
*1098 FILLER_13_449
*1099 FILLER_13_461
*1100 FILLER_13_473
*1101 FILLER_13_485
*1102 FILLER_13_497
*1103 FILLER_13_503
*1104 FILLER_13_505
*1105 FILLER_13_51
*1106 FILLER_13_517
*1107 FILLER_13_529
*1108 FILLER_13_541
*1109 FILLER_13_55
*1110 FILLER_13_553
*1111 FILLER_13_559
*1112 FILLER_13_561
*1113 FILLER_13_57
*1114 FILLER_13_573
*1115 FILLER_13_585
*1116 FILLER_13_597
*1117 FILLER_13_609
*1118 FILLER_13_615
*1119 FILLER_13_617
*1120 FILLER_13_629
*1121 FILLER_13_641
*1122 FILLER_13_653
*1123 FILLER_13_665
*1124 FILLER_13_671
*1125 FILLER_13_673
*1126 FILLER_13_685
*1127 FILLER_13_69
*1128 FILLER_13_697
*1129 FILLER_13_709
*1130 FILLER_13_721
*1131 FILLER_13_727
*1132 FILLER_13_729
*1133 FILLER_13_741
*1134 FILLER_13_753
*1135 FILLER_13_765
*1136 FILLER_13_777
*1137 FILLER_13_783
*1138 FILLER_13_785
*1139 FILLER_13_797
*1140 FILLER_13_809
*1141 FILLER_13_81
*1142 FILLER_13_821
*1143 FILLER_13_93
*1144 FILLER_14_109
*1145 FILLER_14_121
*1146 FILLER_14_133
*1147 FILLER_14_139
*1148 FILLER_14_141
*1149 FILLER_14_15
*1150 FILLER_14_153
*1151 FILLER_14_165
*1152 FILLER_14_177
*1153 FILLER_14_189
*1154 FILLER_14_197
*1155 FILLER_14_217
*1156 FILLER_14_242
*1157 FILLER_14_27
*1158 FILLER_14_29
*1159 FILLER_14_291
*1160 FILLER_14_294
*1161 FILLER_14_3
*1162 FILLER_14_341
*1163 FILLER_14_358
*1164 FILLER_14_373
*1165 FILLER_14_384
*1166 FILLER_14_396
*1167 FILLER_14_408
*1168 FILLER_14_41
*1169 FILLER_14_421
*1170 FILLER_14_433
*1171 FILLER_14_445
*1172 FILLER_14_457
*1173 FILLER_14_469
*1174 FILLER_14_475
*1175 FILLER_14_477
*1176 FILLER_14_489
*1177 FILLER_14_501
*1178 FILLER_14_513
*1179 FILLER_14_525
*1180 FILLER_14_53
*1181 FILLER_14_531
*1182 FILLER_14_533
*1183 FILLER_14_545
*1184 FILLER_14_557
*1185 FILLER_14_569
*1186 FILLER_14_581
*1187 FILLER_14_587
*1188 FILLER_14_589
*1189 FILLER_14_601
*1190 FILLER_14_613
*1191 FILLER_14_625
*1192 FILLER_14_637
*1193 FILLER_14_643
*1194 FILLER_14_645
*1195 FILLER_14_65
*1196 FILLER_14_657
*1197 FILLER_14_669
*1198 FILLER_14_681
*1199 FILLER_14_693
*1200 FILLER_14_699
*1201 FILLER_14_701
*1202 FILLER_14_713
*1203 FILLER_14_725
*1204 FILLER_14_737
*1205 FILLER_14_749
*1206 FILLER_14_755
*1207 FILLER_14_757
*1208 FILLER_14_769
*1209 FILLER_14_77
*1210 FILLER_14_781
*1211 FILLER_14_793
*1212 FILLER_14_805
*1213 FILLER_14_811
*1214 FILLER_14_813
*1215 FILLER_14_821
*1216 FILLER_14_83
*1217 FILLER_14_85
*1218 FILLER_14_97
*1219 FILLER_15_105
*1220 FILLER_15_111
*1221 FILLER_15_113
*1222 FILLER_15_125
*1223 FILLER_15_137
*1224 FILLER_15_149
*1225 FILLER_15_15
*1226 FILLER_15_161
*1227 FILLER_15_167
*1228 FILLER_15_169
*1229 FILLER_15_181
*1230 FILLER_15_193
*1231 FILLER_15_199
*1232 FILLER_15_205
*1233 FILLER_15_242
*1234 FILLER_15_252
*1235 FILLER_15_27
*1236 FILLER_15_271
*1237 FILLER_15_3
*1238 FILLER_15_322
*1239 FILLER_15_334
*1240 FILLER_15_354
*1241 FILLER_15_364
*1242 FILLER_15_376
*1243 FILLER_15_388
*1244 FILLER_15_39
*1245 FILLER_15_393
*1246 FILLER_15_405
*1247 FILLER_15_417
*1248 FILLER_15_429
*1249 FILLER_15_441
*1250 FILLER_15_447
*1251 FILLER_15_449
*1252 FILLER_15_461
*1253 FILLER_15_473
*1254 FILLER_15_485
*1255 FILLER_15_497
*1256 FILLER_15_503
*1257 FILLER_15_505
*1258 FILLER_15_51
*1259 FILLER_15_517
*1260 FILLER_15_529
*1261 FILLER_15_541
*1262 FILLER_15_55
*1263 FILLER_15_553
*1264 FILLER_15_559
*1265 FILLER_15_561
*1266 FILLER_15_57
*1267 FILLER_15_573
*1268 FILLER_15_585
*1269 FILLER_15_597
*1270 FILLER_15_609
*1271 FILLER_15_615
*1272 FILLER_15_617
*1273 FILLER_15_629
*1274 FILLER_15_641
*1275 FILLER_15_653
*1276 FILLER_15_665
*1277 FILLER_15_671
*1278 FILLER_15_673
*1279 FILLER_15_685
*1280 FILLER_15_69
*1281 FILLER_15_697
*1282 FILLER_15_709
*1283 FILLER_15_721
*1284 FILLER_15_727
*1285 FILLER_15_729
*1286 FILLER_15_741
*1287 FILLER_15_753
*1288 FILLER_15_765
*1289 FILLER_15_777
*1290 FILLER_15_783
*1291 FILLER_15_785
*1292 FILLER_15_797
*1293 FILLER_15_809
*1294 FILLER_15_81
*1295 FILLER_15_821
*1296 FILLER_15_93
*1297 FILLER_16_109
*1298 FILLER_16_121
*1299 FILLER_16_133
*1300 FILLER_16_139
*1301 FILLER_16_141
*1302 FILLER_16_15
*1303 FILLER_16_153
*1304 FILLER_16_165
*1305 FILLER_16_177
*1306 FILLER_16_189
*1307 FILLER_16_195
*1308 FILLER_16_197
*1309 FILLER_16_209
*1310 FILLER_16_215
*1311 FILLER_16_223
*1312 FILLER_16_229
*1313 FILLER_16_250
*1314 FILLER_16_260
*1315 FILLER_16_268
*1316 FILLER_16_27
*1317 FILLER_16_277
*1318 FILLER_16_281
*1319 FILLER_16_29
*1320 FILLER_16_293
*1321 FILLER_16_3
*1322 FILLER_16_303
*1323 FILLER_16_307
*1324 FILLER_16_309
*1325 FILLER_16_321
*1326 FILLER_16_333
*1327 FILLER_16_345
*1328 FILLER_16_357
*1329 FILLER_16_363
*1330 FILLER_16_365
*1331 FILLER_16_377
*1332 FILLER_16_389
*1333 FILLER_16_401
*1334 FILLER_16_41
*1335 FILLER_16_413
*1336 FILLER_16_419
*1337 FILLER_16_421
*1338 FILLER_16_433
*1339 FILLER_16_445
*1340 FILLER_16_457
*1341 FILLER_16_469
*1342 FILLER_16_475
*1343 FILLER_16_477
*1344 FILLER_16_489
*1345 FILLER_16_501
*1346 FILLER_16_513
*1347 FILLER_16_525
*1348 FILLER_16_53
*1349 FILLER_16_531
*1350 FILLER_16_533
*1351 FILLER_16_545
*1352 FILLER_16_557
*1353 FILLER_16_569
*1354 FILLER_16_581
*1355 FILLER_16_587
*1356 FILLER_16_589
*1357 FILLER_16_601
*1358 FILLER_16_613
*1359 FILLER_16_625
*1360 FILLER_16_637
*1361 FILLER_16_643
*1362 FILLER_16_645
*1363 FILLER_16_65
*1364 FILLER_16_657
*1365 FILLER_16_669
*1366 FILLER_16_681
*1367 FILLER_16_693
*1368 FILLER_16_699
*1369 FILLER_16_701
*1370 FILLER_16_713
*1371 FILLER_16_725
*1372 FILLER_16_737
*1373 FILLER_16_749
*1374 FILLER_16_755
*1375 FILLER_16_757
*1376 FILLER_16_769
*1377 FILLER_16_77
*1378 FILLER_16_781
*1379 FILLER_16_793
*1380 FILLER_16_805
*1381 FILLER_16_811
*1382 FILLER_16_813
*1383 FILLER_16_821
*1384 FILLER_16_83
*1385 FILLER_16_85
*1386 FILLER_16_97
*1387 FILLER_17_105
*1388 FILLER_17_111
*1389 FILLER_17_113
*1390 FILLER_17_125
*1391 FILLER_17_137
*1392 FILLER_17_149
*1393 FILLER_17_15
*1394 FILLER_17_161
*1395 FILLER_17_167
*1396 FILLER_17_169
*1397 FILLER_17_181
*1398 FILLER_17_193
*1399 FILLER_17_205
*1400 FILLER_17_217
*1401 FILLER_17_223
*1402 FILLER_17_225
*1403 FILLER_17_237
*1404 FILLER_17_249
*1405 FILLER_17_261
*1406 FILLER_17_27
*1407 FILLER_17_273
*1408 FILLER_17_279
*1409 FILLER_17_281
*1410 FILLER_17_287
*1411 FILLER_17_3
*1412 FILLER_17_302
*1413 FILLER_17_314
*1414 FILLER_17_326
*1415 FILLER_17_334
*1416 FILLER_17_337
*1417 FILLER_17_349
*1418 FILLER_17_361
*1419 FILLER_17_373
*1420 FILLER_17_385
*1421 FILLER_17_39
*1422 FILLER_17_391
*1423 FILLER_17_393
*1424 FILLER_17_405
*1425 FILLER_17_417
*1426 FILLER_17_429
*1427 FILLER_17_441
*1428 FILLER_17_447
*1429 FILLER_17_449
*1430 FILLER_17_461
*1431 FILLER_17_473
*1432 FILLER_17_485
*1433 FILLER_17_497
*1434 FILLER_17_503
*1435 FILLER_17_505
*1436 FILLER_17_51
*1437 FILLER_17_517
*1438 FILLER_17_529
*1439 FILLER_17_541
*1440 FILLER_17_55
*1441 FILLER_17_553
*1442 FILLER_17_559
*1443 FILLER_17_561
*1444 FILLER_17_57
*1445 FILLER_17_573
*1446 FILLER_17_585
*1447 FILLER_17_597
*1448 FILLER_17_609
*1449 FILLER_17_615
*1450 FILLER_17_617
*1451 FILLER_17_629
*1452 FILLER_17_641
*1453 FILLER_17_653
*1454 FILLER_17_665
*1455 FILLER_17_671
*1456 FILLER_17_673
*1457 FILLER_17_685
*1458 FILLER_17_69
*1459 FILLER_17_697
*1460 FILLER_17_709
*1461 FILLER_17_721
*1462 FILLER_17_727
*1463 FILLER_17_729
*1464 FILLER_17_741
*1465 FILLER_17_753
*1466 FILLER_17_765
*1467 FILLER_17_777
*1468 FILLER_17_783
*1469 FILLER_17_785
*1470 FILLER_17_797
*1471 FILLER_17_809
*1472 FILLER_17_81
*1473 FILLER_17_821
*1474 FILLER_17_93
*1475 FILLER_18_109
*1476 FILLER_18_121
*1477 FILLER_18_133
*1478 FILLER_18_139
*1479 FILLER_18_141
*1480 FILLER_18_15
*1481 FILLER_18_153
*1482 FILLER_18_165
*1483 FILLER_18_177
*1484 FILLER_18_189
*1485 FILLER_18_195
*1486 FILLER_18_197
*1487 FILLER_18_209
*1488 FILLER_18_221
*1489 FILLER_18_233
*1490 FILLER_18_245
*1491 FILLER_18_251
*1492 FILLER_18_253
*1493 FILLER_18_265
*1494 FILLER_18_27
*1495 FILLER_18_277
*1496 FILLER_18_289
*1497 FILLER_18_29
*1498 FILLER_18_3
*1499 FILLER_18_301
*1500 FILLER_18_307
*1501 FILLER_18_309
*1502 FILLER_18_321
*1503 FILLER_18_333
*1504 FILLER_18_345
*1505 FILLER_18_357
*1506 FILLER_18_363
*1507 FILLER_18_365
*1508 FILLER_18_377
*1509 FILLER_18_389
*1510 FILLER_18_401
*1511 FILLER_18_41
*1512 FILLER_18_413
*1513 FILLER_18_419
*1514 FILLER_18_421
*1515 FILLER_18_433
*1516 FILLER_18_445
*1517 FILLER_18_457
*1518 FILLER_18_469
*1519 FILLER_18_475
*1520 FILLER_18_477
*1521 FILLER_18_489
*1522 FILLER_18_501
*1523 FILLER_18_513
*1524 FILLER_18_525
*1525 FILLER_18_53
*1526 FILLER_18_531
*1527 FILLER_18_533
*1528 FILLER_18_545
*1529 FILLER_18_557
*1530 FILLER_18_569
*1531 FILLER_18_581
*1532 FILLER_18_587
*1533 FILLER_18_589
*1534 FILLER_18_601
*1535 FILLER_18_613
*1536 FILLER_18_625
*1537 FILLER_18_637
*1538 FILLER_18_643
*1539 FILLER_18_645
*1540 FILLER_18_65
*1541 FILLER_18_657
*1542 FILLER_18_669
*1543 FILLER_18_681
*1544 FILLER_18_693
*1545 FILLER_18_699
*1546 FILLER_18_701
*1547 FILLER_18_713
*1548 FILLER_18_725
*1549 FILLER_18_737
*1550 FILLER_18_749
*1551 FILLER_18_755
*1552 FILLER_18_757
*1553 FILLER_18_769
*1554 FILLER_18_77
*1555 FILLER_18_781
*1556 FILLER_18_793
*1557 FILLER_18_805
*1558 FILLER_18_811
*1559 FILLER_18_813
*1560 FILLER_18_821
*1561 FILLER_18_83
*1562 FILLER_18_85
*1563 FILLER_18_97
*1564 FILLER_19_105
*1565 FILLER_19_111
*1566 FILLER_19_113
*1567 FILLER_19_125
*1568 FILLER_19_137
*1569 FILLER_19_149
*1570 FILLER_19_15
*1571 FILLER_19_161
*1572 FILLER_19_167
*1573 FILLER_19_169
*1574 FILLER_19_181
*1575 FILLER_19_193
*1576 FILLER_19_205
*1577 FILLER_19_217
*1578 FILLER_19_223
*1579 FILLER_19_225
*1580 FILLER_19_237
*1581 FILLER_19_249
*1582 FILLER_19_261
*1583 FILLER_19_27
*1584 FILLER_19_273
*1585 FILLER_19_279
*1586 FILLER_19_281
*1587 FILLER_19_293
*1588 FILLER_19_3
*1589 FILLER_19_305
*1590 FILLER_19_317
*1591 FILLER_19_329
*1592 FILLER_19_335
*1593 FILLER_19_337
*1594 FILLER_19_349
*1595 FILLER_19_361
*1596 FILLER_19_373
*1597 FILLER_19_385
*1598 FILLER_19_39
*1599 FILLER_19_391
*1600 FILLER_19_393
*1601 FILLER_19_405
*1602 FILLER_19_417
*1603 FILLER_19_429
*1604 FILLER_19_441
*1605 FILLER_19_447
*1606 FILLER_19_449
*1607 FILLER_19_461
*1608 FILLER_19_473
*1609 FILLER_19_485
*1610 FILLER_19_497
*1611 FILLER_19_503
*1612 FILLER_19_505
*1613 FILLER_19_51
*1614 FILLER_19_517
*1615 FILLER_19_529
*1616 FILLER_19_541
*1617 FILLER_19_55
*1618 FILLER_19_553
*1619 FILLER_19_559
*1620 FILLER_19_561
*1621 FILLER_19_57
*1622 FILLER_19_573
*1623 FILLER_19_585
*1624 FILLER_19_597
*1625 FILLER_19_609
*1626 FILLER_19_615
*1627 FILLER_19_617
*1628 FILLER_19_629
*1629 FILLER_19_641
*1630 FILLER_19_653
*1631 FILLER_19_665
*1632 FILLER_19_671
*1633 FILLER_19_673
*1634 FILLER_19_685
*1635 FILLER_19_69
*1636 FILLER_19_697
*1637 FILLER_19_709
*1638 FILLER_19_721
*1639 FILLER_19_727
*1640 FILLER_19_729
*1641 FILLER_19_741
*1642 FILLER_19_753
*1643 FILLER_19_765
*1644 FILLER_19_777
*1645 FILLER_19_783
*1646 FILLER_19_785
*1647 FILLER_19_797
*1648 FILLER_19_809
*1649 FILLER_19_81
*1650 FILLER_19_821
*1651 FILLER_19_93
*1652 FILLER_1_113
*1653 FILLER_1_15
*1654 FILLER_1_23
*1655 FILLER_1_3
*1656 FILLER_1_334
*1657 FILLER_1_391
*1658 FILLER_1_396
*1659 FILLER_1_418
*1660 FILLER_1_505
*1661 FILLER_1_530
*1662 FILLER_1_564
*1663 FILLER_1_57
*1664 FILLER_1_589
*1665 FILLER_1_597
*1666 FILLER_1_610
*1667 FILLER_1_617
*1668 FILLER_1_626
*1669 FILLER_1_665
*1670 FILLER_1_671
*1671 FILLER_1_673
*1672 FILLER_1_709
*1673 FILLER_1_732
*1674 FILLER_1_757
*1675 FILLER_1_774
*1676 FILLER_1_782
*1677 FILLER_1_820
*1678 FILLER_20_109
*1679 FILLER_20_121
*1680 FILLER_20_133
*1681 FILLER_20_139
*1682 FILLER_20_141
*1683 FILLER_20_15
*1684 FILLER_20_153
*1685 FILLER_20_165
*1686 FILLER_20_177
*1687 FILLER_20_189
*1688 FILLER_20_195
*1689 FILLER_20_197
*1690 FILLER_20_209
*1691 FILLER_20_221
*1692 FILLER_20_233
*1693 FILLER_20_245
*1694 FILLER_20_251
*1695 FILLER_20_253
*1696 FILLER_20_265
*1697 FILLER_20_27
*1698 FILLER_20_277
*1699 FILLER_20_289
*1700 FILLER_20_29
*1701 FILLER_20_3
*1702 FILLER_20_301
*1703 FILLER_20_307
*1704 FILLER_20_309
*1705 FILLER_20_321
*1706 FILLER_20_333
*1707 FILLER_20_345
*1708 FILLER_20_357
*1709 FILLER_20_363
*1710 FILLER_20_365
*1711 FILLER_20_377
*1712 FILLER_20_389
*1713 FILLER_20_401
*1714 FILLER_20_41
*1715 FILLER_20_413
*1716 FILLER_20_419
*1717 FILLER_20_421
*1718 FILLER_20_433
*1719 FILLER_20_445
*1720 FILLER_20_457
*1721 FILLER_20_469
*1722 FILLER_20_475
*1723 FILLER_20_477
*1724 FILLER_20_489
*1725 FILLER_20_501
*1726 FILLER_20_513
*1727 FILLER_20_525
*1728 FILLER_20_53
*1729 FILLER_20_531
*1730 FILLER_20_533
*1731 FILLER_20_545
*1732 FILLER_20_557
*1733 FILLER_20_569
*1734 FILLER_20_581
*1735 FILLER_20_587
*1736 FILLER_20_589
*1737 FILLER_20_601
*1738 FILLER_20_613
*1739 FILLER_20_625
*1740 FILLER_20_637
*1741 FILLER_20_643
*1742 FILLER_20_645
*1743 FILLER_20_65
*1744 FILLER_20_657
*1745 FILLER_20_669
*1746 FILLER_20_681
*1747 FILLER_20_693
*1748 FILLER_20_699
*1749 FILLER_20_701
*1750 FILLER_20_713
*1751 FILLER_20_725
*1752 FILLER_20_737
*1753 FILLER_20_749
*1754 FILLER_20_755
*1755 FILLER_20_757
*1756 FILLER_20_769
*1757 FILLER_20_77
*1758 FILLER_20_781
*1759 FILLER_20_793
*1760 FILLER_20_805
*1761 FILLER_20_811
*1762 FILLER_20_813
*1763 FILLER_20_821
*1764 FILLER_20_83
*1765 FILLER_20_85
*1766 FILLER_20_97
*1767 FILLER_21_105
*1768 FILLER_21_111
*1769 FILLER_21_113
*1770 FILLER_21_125
*1771 FILLER_21_137
*1772 FILLER_21_149
*1773 FILLER_21_15
*1774 FILLER_21_161
*1775 FILLER_21_167
*1776 FILLER_21_169
*1777 FILLER_21_181
*1778 FILLER_21_193
*1779 FILLER_21_205
*1780 FILLER_21_217
*1781 FILLER_21_223
*1782 FILLER_21_225
*1783 FILLER_21_237
*1784 FILLER_21_249
*1785 FILLER_21_261
*1786 FILLER_21_27
*1787 FILLER_21_273
*1788 FILLER_21_279
*1789 FILLER_21_281
*1790 FILLER_21_293
*1791 FILLER_21_3
*1792 FILLER_21_305
*1793 FILLER_21_317
*1794 FILLER_21_329
*1795 FILLER_21_335
*1796 FILLER_21_337
*1797 FILLER_21_349
*1798 FILLER_21_361
*1799 FILLER_21_373
*1800 FILLER_21_385
*1801 FILLER_21_39
*1802 FILLER_21_391
*1803 FILLER_21_393
*1804 FILLER_21_405
*1805 FILLER_21_417
*1806 FILLER_21_429
*1807 FILLER_21_441
*1808 FILLER_21_447
*1809 FILLER_21_449