*SPEF "ieee 1481-1999"
*DESIGN "user_project_wrapper"
*DATE "16:03:25 Friday February 28, 2025"
*VENDOR "The OpenROAD Project"
*PROGRAM "OpenROAD"
*VERSION "edf00dff99f6c40d67a30c0e22a8191c5d2ed9d6"
*DESIGN_FLOW "NAME_SCOPE LOCAL" "PIN_CAP NONE"
*DIVIDER /
*DELIMITER :
*BUS_DELIMITER []
*T_UNIT 1 NS
*C_UNIT 1 PF
*R_UNIT 1 OHM
*L_UNIT 1 HENRY

*NAME_MAP
*1 HADDR[0]
*2 HADDR[10]
*3 HADDR[11]
*4 HADDR[12]
*5 HADDR[13]
*6 HADDR[14]
*7 HADDR[15]
*8 HADDR[16]
*9 HADDR[17]
*10 HADDR[18]
*11 HADDR[19]
*12 HADDR[1]
*13 HADDR[20]
*14 HADDR[21]
*15 HADDR[22]
*16 HADDR[23]
*17 HADDR[24]
*18 HADDR[25]
*19 HADDR[26]
*20 HADDR[27]
*21 HADDR[28]
*22 HADDR[29]
*23 HADDR[2]
*24 HADDR[30]
*25 HADDR[31]
*26 HADDR[3]
*27 HADDR[4]
*28 HADDR[5]
*29 HADDR[6]
*30 HADDR[7]
*31 HADDR[8]
*32 HADDR[9]
*33 HCLK
*34 HRDATA[0]
*35 HRDATA[10]
*36 HRDATA[11]
*37 HRDATA[12]
*38 HRDATA[13]
*39 HRDATA[14]
*40 HRDATA[15]
*41 HRDATA[16]
*42 HRDATA[17]
*43 HRDATA[18]
*44 HRDATA[19]
*45 HRDATA[1]
*46 HRDATA[20]
*47 HRDATA[21]
*48 HRDATA[22]
*49 HRDATA[23]
*50 HRDATA[24]
*51 HRDATA[25]
*52 HRDATA[26]
*53 HRDATA[27]
*54 HRDATA[28]
*55 HRDATA[29]
*56 HRDATA[2]
*57 HRDATA[30]
*58 HRDATA[31]
*59 HRDATA[3]
*60 HRDATA[4]
*61 HRDATA[5]
*62 HRDATA[6]
*63 HRDATA[7]
*64 HRDATA[8]
*65 HRDATA[9]
*66 HREADY
*67 HREADYOUT
*68 HRESETn
*69 HSEL
*70 HSIZE[0]
*71 HSIZE[1]
*72 HSIZE[2]
*73 HTRANS[0]
*74 HTRANS[1]
*75 HWDATA[0]
*76 HWDATA[10]
*77 HWDATA[11]
*78 HWDATA[12]
*79 HWDATA[13]
*80 HWDATA[14]
*81 HWDATA[15]
*82 HWDATA[16]
*83 HWDATA[17]
*84 HWDATA[18]
*85 HWDATA[19]
*86 HWDATA[1]
*87 HWDATA[20]
*88 HWDATA[21]
*89 HWDATA[22]
*90 HWDATA[23]
*91 HWDATA[24]
*92 HWDATA[25]
*93 HWDATA[26]
*94 HWDATA[27]
*95 HWDATA[28]
*96 HWDATA[29]
*97 HWDATA[2]
*98 HWDATA[30]
*99 HWDATA[31]
*100 HWDATA[3]
*101 HWDATA[4]
*102 HWDATA[5]
*103 HWDATA[6]
*104 HWDATA[7]
*105 HWDATA[8]
*106 HWDATA[9]
*107 HWRITE
*108 adc0
*109 adc1
*110 comp_n
*111 comp_p
*112 dac0
*113 dac1
*114 gpio0_in[0]
*115 gpio0_in[1]
*116 gpio0_in[2]
*117 gpio0_in[3]
*118 gpio0_in[4]
*119 gpio0_in[5]
*120 gpio0_in[6]
*121 gpio0_in[7]
*122 gpio0_oeb[0]
*123 gpio0_oeb[1]
*124 gpio0_oeb[2]
*125 gpio0_oeb[3]
*126 gpio0_oeb[4]
*127 gpio0_oeb[5]
*128 gpio0_oeb[6]
*129 gpio0_oeb[7]
*130 gpio0_out[0]
*131 gpio0_out[1]
*132 gpio0_out[2]
*133 gpio0_out[3]
*134 gpio0_out[4]
*135 gpio0_out[5]
*136 gpio0_out[6]
*137 gpio0_out[7]
*138 gpio1_in[0]
*139 gpio1_in[1]
*140 gpio1_in[2]
*141 gpio1_in[3]
*142 gpio1_in[4]
*143 gpio1_in[5]
*144 gpio1_in[6]
*145 gpio1_in[7]
*146 gpio1_oeb[0]
*147 gpio1_oeb[1]
*148 gpio1_oeb[2]
*149 gpio1_oeb[3]
*150 gpio1_oeb[4]
*151 gpio1_oeb[5]
*152 gpio1_oeb[6]
*153 gpio1_oeb[7]
*154 gpio1_out[0]
*155 gpio1_out[1]
*156 gpio1_out[2]
*157 gpio1_out[3]
*158 gpio1_out[4]
*159 gpio1_out[5]
*160 gpio1_out[6]
*161 gpio1_out[7]
*162 gpio2_in[0]
*163 gpio2_in[1]
*164 gpio2_in[2]
*165 gpio2_in[3]
*166 gpio2_in[4]
*167 gpio2_in[5]
*168 gpio2_in[6]
*169 gpio2_in[7]
*170 gpio2_oeb[0]
*171 gpio2_oeb[1]
*172 gpio2_oeb[2]
*173 gpio2_oeb[3]
*174 gpio2_oeb[4]
*175 gpio2_oeb[5]
*176 gpio2_oeb[6]
*177 gpio2_oeb[7]
*178 gpio2_out[0]
*179 gpio2_out[1]
*180 gpio2_out[2]
*181 gpio2_out[3]
*182 gpio2_out[4]
*183 gpio2_out[5]
*184 gpio2_out[6]
*185 gpio2_out[7]
*186 gpio3_0_analog
*187 gpio3_1_analog
*188 gpio3_2_analog
*189 gpio3_3_analog
*190 gpio3_4_analog
*191 gpio3_5_analog
*192 gpio3_6_analog
*193 gpio3_7_analog
*194 gpio3_in[0]
*195 gpio3_in[1]
*196 gpio3_in[2]
*197 gpio3_in[3]
*198 gpio3_in[4]
*199 gpio3_in[5]
*200 gpio3_in[6]
*201 gpio3_in[7]
*202 gpio3_oeb[0]
*203 gpio3_oeb[1]
*204 gpio3_oeb[2]
*205 gpio3_oeb[3]
*206 gpio3_oeb[4]
*207 gpio3_oeb[5]
*208 gpio3_oeb[6]
*209 gpio3_oeb[7]
*210 gpio3_out[0]
*211 gpio3_out[1]
*212 gpio3_out[2]
*213 gpio3_out[3]
*214 gpio3_out[4]
*215 gpio3_out[5]
*216 gpio3_out[6]
*217 gpio3_out[7]
*218 gpio4_0_analog
*219 gpio4_1_analog
*220 gpio4_2_analog
*221 gpio4_3_analog
*222 gpio4_4_analog
*223 gpio4_5_analog
*224 gpio4_6_analog
*225 gpio4_7_analog
*226 gpio4_in[0]
*227 gpio4_in[1]
*228 gpio4_in[2]
*229 gpio4_in[3]
*230 gpio4_in[4]
*231 gpio4_in[5]
*232 gpio4_in[6]
*233 gpio4_in[7]
*234 gpio4_oeb[0]
*235 gpio4_oeb[1]
*236 gpio4_oeb[2]
*237 gpio4_oeb[3]
*238 gpio4_oeb[4]
*239 gpio4_oeb[5]
*240 gpio4_oeb[6]
*241 gpio4_oeb[7]
*242 gpio4_out[0]
*243 gpio4_out[1]
*244 gpio4_out[2]
*245 gpio4_out[3]
*246 gpio4_out[4]
*247 gpio4_out[5]
*248 gpio4_out[6]
*249 gpio4_out[7]
*250 gpio5_in[0]
*251 gpio5_in[1]
*252 gpio5_in[2]
*253 gpio5_in[3]
*254 gpio5_in[4]
*255 gpio5_in[5]
*256 gpio5_in[6]
*257 gpio5_in[7]
*258 gpio5_oeb[0]
*259 gpio5_oeb[1]
*260 gpio5_oeb[2]
*261 gpio5_oeb[3]
*262 gpio5_oeb[4]
*263 gpio5_oeb[5]
*264 gpio5_oeb[6]
*265 gpio5_oeb[7]
*266 gpio5_out[0]
*267 gpio5_out[1]
*268 gpio5_out[2]
*269 gpio5_out[3]
*270 gpio5_out[4]
*271 gpio5_out[5]
*272 gpio5_out[6]
*273 gpio5_out[7]
*274 gpio6_in[0]
*275 gpio6_in[1]
*276 gpio6_in[2]
*277 gpio6_in[3]
*278 gpio6_in[4]
*279 gpio6_in[5]
*280 gpio6_in[6]
*281 gpio6_in[7]
*282 gpio6_oeb[0]
*283 gpio6_oeb[1]
*284 gpio6_oeb[2]
*285 gpio6_oeb[3]
*286 gpio6_oeb[4]
*287 gpio6_oeb[5]
*288 gpio6_oeb[6]
*289 gpio6_oeb[7]
*290 gpio6_out[0]
*291 gpio6_out[1]
*292 gpio6_out[2]
*293 gpio6_out[3]
*294 gpio6_out[4]
*295 gpio6_out[5]
*296 gpio6_out[6]
*297 gpio6_out[7]
*298 gpio7_in[0]
*299 gpio7_in[1]
*300 gpio7_in[2]
*301 gpio7_in[3]
*302 gpio7_in[4]
*303 gpio7_in[5]
*304 gpio7_in[6]
*305 gpio7_in[7]
*306 gpio7_oeb[0]
*307 gpio7_oeb[1]
*308 gpio7_oeb[2]
*309 gpio7_oeb[3]
*310 gpio7_oeb[4]
*311 gpio7_oeb[5]
*312 gpio7_oeb[6]
*313 gpio7_oeb[7]
*314 gpio7_out[0]
*315 gpio7_out[1]
*316 gpio7_out[2]
*317 gpio7_out[3]
*318 gpio7_out[4]
*319 gpio7_out[5]
*320 gpio7_out[6]
*321 gpio7_out[7]
*322 ibias100
*323 ibias50
*324 left_vref
*325 right_vref
*326 sio_in[0]
*327 sio_in[1]
*328 sio_oeb[0]
*329 sio_oeb[1]
*330 sio_out[0]
*331 sio_out[1]
*332 tempsense
*333 ulpcomp_n
*334 ulpcomp_p
*335 user_irq[0]
*336 user_irq[10]
*337 user_irq[11]
*338 user_irq[12]
*339 user_irq[13]
*340 user_irq[14]
*341 user_irq[15]
*342 user_irq[1]
*343 user_irq[2]
*344 user_irq[3]
*345 user_irq[4]
*346 user_irq[5]
*347 user_irq[6]
*348 user_irq[7]
*349 user_irq[8]
*350 user_irq[9]
*351 vbgsc
*352 vbgtc
*357 vinref
*358 voutref
*359 frigate_prj

*PORTS
HADDR[0] I
HADDR[10] I
HADDR[11] I
HADDR[12] I
HADDR[13] I
HADDR[14] I
HADDR[15] I
HADDR[16] I
HADDR[17] I
HADDR[18] I
HADDR[19] I
HADDR[1] I
HADDR[20] I
HADDR[21] I
HADDR[22] I
HADDR[23] I
HADDR[24] I
HADDR[25] I
HADDR[26] I
HADDR[27] I
HADDR[28] I
HADDR[29] I
HADDR[2] I
HADDR[30] I
HADDR[31] I
HADDR[3] I
HADDR[4] I
HADDR[5] I
HADDR[6] I
HADDR[7] I
HADDR[8] I
HADDR[9] I
HCLK I
HRDATA[0] O
HRDATA[10] O
HRDATA[11] O
HRDATA[12] O
HRDATA[13] O
HRDATA[14] O
HRDATA[15] O
HRDATA[16] O
HRDATA[17] O
HRDATA[18] O
HRDATA[19] O
HRDATA[1] O
HRDATA[20] O
HRDATA[21] O
HRDATA[22] O
HRDATA[23] O
HRDATA[24] O
HRDATA[25] O
HRDATA[26] O
HRDATA[27] O
HRDATA[28] O
HRDATA[29] O
HRDATA[2] O
HRDATA[30] O
HRDATA[31] O
HRDATA[3] O
HRDATA[4] O
HRDATA[5] O
HRDATA[6] O
HRDATA[7] O
HRDATA[8] O
HRDATA[9] O
HREADY I
HREADYOUT O
HRESETn I
HSEL I
HSIZE[0] I
HSIZE[1] I
HSIZE[2] I
HTRANS[0] I
HTRANS[1] I
HWDATA[0] I
HWDATA[10] I
HWDATA[11] I
HWDATA[12] I
HWDATA[13] I
HWDATA[14] I
HWDATA[15] I
HWDATA[16] I
HWDATA[17] I
HWDATA[18] I
HWDATA[19] I
HWDATA[1] I
HWDATA[20] I
HWDATA[21] I
HWDATA[22] I
HWDATA[23] I
HWDATA[24] I
HWDATA[25] I
HWDATA[26] I
HWDATA[27] I
HWDATA[28] I
HWDATA[29] I
HWDATA[2] I
HWDATA[30] I
HWDATA[31] I
HWDATA[3] I
HWDATA[4] I
HWDATA[5] I
HWDATA[6] I
HWDATA[7] I
HWDATA[8] I
HWDATA[9] I
HWRITE I
adc0 I
adc1 I
comp_n I
comp_p I
dac0 I
dac1 I
gpio0_in[0] I
gpio0_in[1] I
gpio0_in[2] I
gpio0_in[3] I
gpio0_in[4] I
gpio0_in[5] I
gpio0_in[6] I
gpio0_in[7] I
gpio0_oeb[0] O
gpio0_oeb[1] O
gpio0_oeb[2] O
gpio0_oeb[3] O
gpio0_oeb[4] O
gpio0_oeb[5] O
gpio0_oeb[6] O
gpio0_oeb[7] O
gpio0_out[0] O
gpio0_out[1] O
gpio0_out[2] O
gpio0_out[3] O
gpio0_out[4] O
gpio0_out[5] O
gpio0_out[6] O
gpio0_out[7] O
gpio1_in[0] I
gpio1_in[1] I
gpio1_in[2] I
gpio1_in[3] I
gpio1_in[4] I
gpio1_in[5] I
gpio1_in[6] I
gpio1_in[7] I
gpio1_oeb[0] O
gpio1_oeb[1] O
gpio1_oeb[2] O
gpio1_oeb[3] O
gpio1_oeb[4] O
gpio1_oeb[5] O
gpio1_oeb[6] O
gpio1_oeb[7] O
gpio1_out[0] O
gpio1_out[1] O
gpio1_out[2] O
gpio1_out[3] O
gpio1_out[4] O
gpio1_out[5] O
gpio1_out[6] O
gpio1_out[7] O
gpio2_in[0] I
gpio2_in[1] I
gpio2_in[2] I
gpio2_in[3] I
gpio2_in[4] I
gpio2_in[5] I
gpio2_in[6] I
gpio2_in[7] I
gpio2_oeb[0] O
gpio2_oeb[1] O
gpio2_oeb[2] O
gpio2_oeb[3] O
gpio2_oeb[4] O
gpio2_oeb[5] O
gpio2_oeb[6] O
gpio2_oeb[7] O
gpio2_out[0] O
gpio2_out[1] O
gpio2_out[2] O
gpio2_out[3] O
gpio2_out[4] O
gpio2_out[5] O
gpio2_out[6] O
gpio2_out[7] O
gpio3_0_analog I
gpio3_1_analog I
gpio3_2_analog I
gpio3_3_analog I
gpio3_4_analog I
gpio3_5_analog I
gpio3_6_analog I
gpio3_7_analog I
gpio3_in[0] I
gpio3_in[1] I
gpio3_in[2] I
gpio3_in[3] I
gpio3_in[4] I
gpio3_in[5] I
gpio3_in[6] I
gpio3_in[7] I
gpio3_oeb[0] O
gpio3_oeb[1] O
gpio3_oeb[2] O
gpio3_oeb[3] O
gpio3_oeb[4] O
gpio3_oeb[5] O
gpio3_oeb[6] O
gpio3_oeb[7] O
gpio3_out[0] O
gpio3_out[1] O
gpio3_out[2] O
gpio3_out[3] O
gpio3_out[4] O
gpio3_out[5] O
gpio3_out[6] O
gpio3_out[7] O
gpio4_0_analog I
gpio4_1_analog I
gpio4_2_analog I
gpio4_3_analog I
gpio4_4_analog I
gpio4_5_analog I
gpio4_6_analog I
gpio4_7_analog I
gpio4_in[0] I
gpio4_in[1] I
gpio4_in[2] I
gpio4_in[3] I
gpio4_in[4] I
gpio4_in[5] I
gpio4_in[6] I
gpio4_in[7] I
gpio4_oeb[0] O
gpio4_oeb[1] O
gpio4_oeb[2] O
gpio4_oeb[3] O
gpio4_oeb[4] O
gpio4_oeb[5] O
gpio4_oeb[6] O
gpio4_oeb[7] O
gpio4_out[0] O
gpio4_out[1] O
gpio4_out[2] O
gpio4_out[3] O
gpio4_out[4] O
gpio4_out[5] O
gpio4_out[6] O
gpio4_out[7] O
gpio5_in[0] I
gpio5_in[1] I
gpio5_in[2] I
gpio5_in[3] I
gpio5_in[4] I
gpio5_in[5] I
gpio5_in[6] I
gpio5_in[7] I
gpio5_oeb[0] O
gpio5_oeb[1] O
gpio5_oeb[2] O
gpio5_oeb[3] O
gpio5_oeb[4] O
gpio5_oeb[5] O
gpio5_oeb[6] O
gpio5_oeb[7] O
gpio5_out[0] O
gpio5_out[1] O
gpio5_out[2] O
gpio5_out[3] O
gpio5_out[4] O
gpio5_out[5] O
gpio5_out[6] O
gpio5_out[7] O
gpio6_in[0] I
gpio6_in[1] I
gpio6_in[2] I
gpio6_in[3] I
gpio6_in[4] I
gpio6_in[5] I
gpio6_in[6] I
gpio6_in[7] I
gpio6_oeb[0] O
gpio6_oeb[1] O
gpio6_oeb[2] O
gpio6_oeb[3] O
gpio6_oeb[4] O
gpio6_oeb[5] O
gpio6_oeb[6] O
gpio6_oeb[7] O
gpio6_out[0] O
gpio6_out[1] O
gpio6_out[2] O
gpio6_out[3] O
gpio6_out[4] O
gpio6_out[5] O
gpio6_out[6] O
gpio6_out[7] O
gpio7_in[0] I
gpio7_in[1] I
gpio7_in[2] I
gpio7_in[3] I
gpio7_in[4] I
gpio7_in[5] I
gpio7_in[6] I
gpio7_in[7] I
gpio7_oeb[0] O
gpio7_oeb[1] O
gpio7_oeb[2] O
gpio7_oeb[3] O
gpio7_oeb[4] O
gpio7_oeb[5] O
gpio7_oeb[6] O
gpio7_oeb[7] O
gpio7_out[0] O
gpio7_out[1] O
gpio7_out[2] O
gpio7_out[3] O
gpio7_out[4] O
gpio7_out[5] O
gpio7_out[6] O
gpio7_out[7] O
ibias100 I
ibias50 I
left_vref I
right_vref I
sio_in[0] I
sio_in[1] I
sio_oeb[0] O
sio_oeb[1] O
sio_out[0] O
sio_out[1] O
tempsense I
ulpcomp_n I
ulpcomp_p I
user_irq[0] O
user_irq[10] O
user_irq[11] O
user_irq[12] O
user_irq[13] O
user_irq[14] O
user_irq[15] O
user_irq[1] O
user_irq[2] O
user_irq[3] O
user_irq[4] O
user_irq[5] O
user_irq[6] O
user_irq[7] O
user_irq[8] O
user_irq[9] O
vbgsc I
vbgtc I
vinref I
voutref I

*D_NET *1 0.0482004
*CONN
*P HADDR[0] I
*I *359:HADDR[0] I *D ahb_counter
*CAP
1 HADDR[0] 0.000620131
2 *359:HADDR[0] 0.000283445
3 *1:19 0.00937628
4 *1:13 0.012486
5 *1:11 0.00401328
6 *359:HADDR[0] *359:HWRITE 0
7 *359:HADDR[0] *34:5 0
8 *1:11 *69:13 0
9 *1:13 *12:7 0.00189228
10 *1:19 *359:HWDATA[0] 0
11 *1:19 *31:9 0.019519
12 *1:19 *67:29 9.97767e-06
*RES
1 HADDR[0] *1:11 10.5111 
2 *1:11 *1:13 78.4464 
3 *1:13 *1:19 45.8551 
4 *1:19 *359:HADDR[0] 5.52679 
*END

*D_NET *2 0.0548174
*CONN
*P HADDR[10] I
*I *359:HADDR[10] I *D ahb_counter
*CAP
1 HADDR[10] 0.00366447
2 *359:HADDR[10] 0.000626489
3 *2:9 0.011677
4 *2:5 0.014715
5 *359:HADDR[10] *359:HWDATA[9] 0
6 *359:HADDR[10] *35:5 0
7 *2:9 *359:HWDATA[2] 0
8 *2:9 *359:HWDATA[5] 0.00378795
9 *2:9 *3:9 0
10 *2:9 *13:9 0
11 *2:9 *15:9 0.0196832
12 *2:9 *31:9 0
13 *2:9 *65:11 0.00066327
*RES
1 HADDR[10] *2:5 74.1339 
2 *2:5 *2:9 49.0031 
3 *2:9 *359:HADDR[10] 15.6154 
*END

*D_NET *3 0.0566449
*CONN
*P HADDR[11] I
*I *359:HADDR[11] I *D ahb_counter
*CAP
1 HADDR[11] 0.0033743
2 *359:HADDR[11] 0.000934641
3 *3:9 0.0125038
4 *3:5 0.0149435
5 *359:HADDR[11] *359:HWDATA[10] 0
6 *359:HADDR[11] *36:5 0
7 *3:9 *359:HWDATA[1] 0.00267853
8 *3:9 *5:9 0
9 *3:9 *15:9 0
10 *3:9 *17:9 0.0187165
11 *3:9 *63:11 0.00349362
12 *2:9 *3:9 0
*RES
1 HADDR[11] *3:5 68.0625 
2 *3:5 *3:9 49.2914 
3 *3:9 *359:HADDR[11] 21.6868 
*END

*D_NET *4 0.0592795
*CONN
*P HADDR[12] I
*I *359:HADDR[12] I *D ahb_counter
*CAP
1 HADDR[12] 0.000631523
2 *359:HADDR[12] 0.00383321
3 *4:11 0.0137128
4 *4:7 0.0105111
5 *359:HADDR[12] *359:HWDATA[11] 0
6 *359:HADDR[12] *37:9 0
7 *4:11 *16:9 0.0208697
8 *4:11 *23:11 0
9 *4:11 *24:9 0
10 *4:11 *56:9 0.00972115
*RES
1 HADDR[12] *4:7 15.6154 
2 *4:7 *4:11 49.5797 
3 *4:11 *359:HADDR[12] 74.1339 
*END

*D_NET *5 0.0585955
*CONN
*P HADDR[13] I
*I *359:HADDR[13] I *D ahb_counter
*CAP
1 HADDR[13] 0.00308709
2 *359:HADDR[13] 0.00126511
3 *5:9 0.0114239
4 *5:5 0.0132459
5 *359:HADDR[13] *359:HWDATA[12] 0
6 *359:HADDR[13] *38:7 0
7 *5:9 *17:9 0
8 *5:9 *18:9 0.0202359
9 *5:9 *59:11 0.0093377
10 *3:9 *5:9 0
*RES
1 HADDR[13] *5:5 61.9911 
2 *5:5 *5:9 49.8679 
3 *5:9 *359:HADDR[13] 27.7582 
*END

*D_NET *6 0.0599817
*CONN
*P HADDR[14] I
*I *359:HADDR[14] I *D ahb_counter
*CAP
1 HADDR[14] 0.00276376
2 *359:HADDR[14] 0.00160386
3 *6:9 0.0126307
4 *6:7 0.0110268
5 *6:5 0.00276376
6 *359:HADDR[14] *359:HWDATA[13] 0
7 *359:HADDR[14] *39:5 0
8 *6:9 *18:9 0
9 *6:9 *19:9 0.0200138
10 *6:9 *32:9 0
11 *6:9 *60:11 0.00917889
*RES
1 HADDR[14] *6:5 55.3125 
2 *6:5 *6:7 3.41 
3 *6:7 *6:9 46.7462 
4 *6:9 *359:HADDR[14] 34.4368 
*END

*D_NET *7 0.0697611
*CONN
*P HADDR[15] I
*I *359:HADDR[15] I *D ahb_counter
*CAP
1 HADDR[15] 0.00246374
2 *359:HADDR[15] 0.00193674
3 *7:9 0.00877869
4 *7:7 0.00684195
5 *7:5 0.00246374
6 *359:HADDR[15] *359:HWDATA[14] 0
7 *359:HADDR[15] *40:5 0
8 *7:9 *21:9 0.0198148
9 *7:9 *28:11 0
10 *7:9 *32:9 0.024217
11 *7:9 *64:11 0.00324449
*RES
1 HADDR[15] *7:5 49.2411 
2 *7:5 *7:7 3.41 
3 *7:7 *7:9 47.0345 
4 *7:9 *359:HADDR[15] 40.5082 
*END

*D_NET *8 0.066984
*CONN
*P HADDR[16] I
*I *359:HADDR[16] I *D ahb_counter
*CAP
1 HADDR[16] 0.000973942
2 *359:HADDR[16] 0.00348116
3 *8:11 0.00348116
4 *8:9 0.00954786
5 *8:7 0.0105218
6 *359:HADDR[16] *359:HWDATA[15] 0
7 *359:HADDR[16] *41:5 0
8 *8:9 *14:9 0
9 *8:9 *24:9 0.0188595
10 *8:9 *29:11 0.0201186
*RES
1 HADDR[16] *8:7 22.2939 
2 *8:7 *8:9 47.3227 
3 *8:9 *8:11 3.41 
4 *8:11 *359:HADDR[16] 67.4554 
*END

*D_NET *9 0.0728507
*CONN
*P HADDR[17] I
*I *359:HADDR[17] I *D ahb_counter
*CAP
1 HADDR[17] 0.00216755
2 *359:HADDR[17] 0.00225308
3 *9:9 0.00922402
4 *9:7 0.00913849
5 *359:HADDR[17] *359:HWDATA[16] 0
6 *359:HADDR[17] *42:7 0
7 *9:9 *21:9 0
8 *9:9 *22:9 0.0209434
9 *9:9 *27:11 0
10 *9:9 *28:11 0.018806
11 *9:9 *62:11 0.0103182
*RES
1 HADDR[17] *9:7 46.5796 
2 *9:7 *9:9 47.611 
3 *9:9 *359:HADDR[17] 46.5796 
*END

*D_NET *10 0.065628
*CONN
*P HADDR[18] I
*I *359:HADDR[18] I *D ahb_counter
*CAP
1 HADDR[18] 0.00186494
2 *359:HADDR[18] 0.00253695
3 *10:11 0.00253695
4 *10:9 0.010083
5 *10:7 0.011948
6 *359:HADDR[18] *359:HWDATA[17] 0
7 *359:HADDR[18] *43:7 0
8 *10:9 *22:9 0
9 *10:9 *25:9 0.0199699
10 *10:9 *26:11 0
11 *10:9 *27:11 0.0166882
*RES
1 HADDR[18] *10:7 40.5082 
2 *10:7 *10:9 47.8993 
3 *10:9 *10:11 3.41 
4 *10:11 *359:HADDR[18] 49.2411 
*END

*D_NET *11 0.0562184
*CONN
*P HADDR[19] I
*I *359:HADDR[19] I *D ahb_counter
*CAP
1 HADDR[19] 0.00153521
2 *359:HADDR[19] 0.00292795
3 *11:11 0.00292795
4 *11:9 0.0110571
5 *11:7 0.0125924
6 *359:HADDR[19] *359:HWDATA[18] 0
7 *359:HADDR[19] *44:7 0
8 *11:9 *12:11 0
9 *11:9 *26:11 0.00710961
10 *11:9 *45:9 0.0180682
11 *11:9 *66:11 0
*RES
1 HADDR[19] *11:7 33.8296 
2 *11:7 *11:9 48.1875 
3 *11:9 *11:11 3.41 
4 *11:11 *359:HADDR[19] 55.9196 
*END

*D_NET *12 0.0437665
*CONN
*P HADDR[1] I
*I *359:HADDR[1] I *D ahb_counter
*CAP
1 HADDR[1] 0.000832243
2 *359:HADDR[1] 0.00253815
3 *12:11 0.0143739
4 *12:7 0.012668
5 *359:HADDR[1] *359:HWDATA[0] 0
6 *359:HADDR[1] *45:5 0
7 *359:HADDR[1] *100:5 0.00157656
8 *12:11 *14:9 0.0053369
9 *12:11 *26:11 0
10 *12:11 *29:11 0
11 *12:11 *34:9 0.00131943
12 *12:11 *66:11 0.00322894
13 *1:13 *12:7 0.00189228
14 *11:9 *12:11 0
*RES
1 HADDR[1] *12:7 28.9725 
2 *12:7 *12:11 44.8953 
3 *12:11 *359:HADDR[1] 60.7768 
*END

*D_NET *13 0.0600643
*CONN
*P HADDR[20] I
*I *359:HADDR[20] I *D ahb_counter
*CAP
1 HADDR[20] 0.00401662
2 *359:HADDR[20] 0.000351011
3 *13:9 0.0104117
4 *13:7 0.0100607
5 *13:5 0.00401662
6 *359:HADDR[20] *359:HWDATA[19] 0
7 *359:HADDR[20] *46:7 0
8 *13:9 *359:HWDATA[2] 0.00188419
9 *13:9 *359:HWDATA[5] 0
10 *13:9 *31:9 0.0195089
11 *13:9 *37:9 0.00741171
12 *13:9 *61:11 0.00240275
13 *13:9 *65:11 0
14 *2:9 *13:9 0
*RES
1 HADDR[20] *13:5 79.5982 
2 *13:5 *13:7 3.41 
3 *13:7 *13:9 48.4758 
4 *13:9 *359:HADDR[20] 10.1511 
*END

*D_NET *14 0.0589467
*CONN
*P HADDR[21] I
*I *359:HADDR[21] I *D ahb_counter
*CAP
1 HADDR[21] 0.00126283
2 *359:HADDR[21] 0.00321345
3 *14:11 0.00321345
4 *14:9 0.0115138
5 *14:7 0.0127767
6 *359:HADDR[21] *359:HWDATA[20] 0
7 *359:HADDR[21] *47:5 0
8 *14:9 *29:11 0
9 *14:9 *34:9 0.0216295
10 *14:9 *41:11 0
11 *8:9 *14:9 0
12 *12:11 *14:9 0.0053369
*RES
1 HADDR[21] *14:7 27.7582 
2 *14:7 *14:9 48.7641 
3 *14:9 *14:11 3.41 
4 *14:11 *359:HADDR[21] 61.9911 
*END

*D_NET *15 0.0616901
*CONN
*P HADDR[22] I
*I *359:HADDR[22] I *D ahb_counter
*CAP
1 HADDR[22] 0.00371955
2 *359:HADDR[22] 0.000664348
3 *15:9 0.0121877
4 *15:7 0.0115234
5 *15:5 0.00371955
6 *359:HADDR[22] *359:HWDATA[21] 0
7 *359:HADDR[22] *48:7 0
8 *15:9 *359:HWDATA[1] 0
9 *15:9 *38:11 0.00838678
10 *15:9 *63:11 0
11 *15:9 *65:11 0.00180559
12 *2:9 *15:9 0.0196832
13 *3:9 *15:9 0
*RES
1 HADDR[22] *15:5 73.5268 
2 *15:5 *15:7 3.41 
3 *15:7 *15:9 49.0523 
4 *15:9 *359:HADDR[22] 16.2225 
*END

*D_NET *16 0.0608282
*CONN
*P HADDR[23] I
*I *359:HADDR[23] I *D ahb_counter
*CAP
1 HADDR[23] 0.000588665
2 *359:HADDR[23] 0.00387109
3 *16:11 0.00387109
4 *16:9 0.0108977
5 *16:7 0.0114863
6 *359:HADDR[23] *359:HWDATA[22] 0
7 *359:HADDR[23] *49:5 0
8 *16:9 *20:9 0
9 *16:9 *23:11 0
10 *16:9 *30:11 0
11 *16:9 *35:11 0
12 *16:9 *36:11 0
13 *16:9 *40:11 0.00745999
14 *16:9 *56:9 0.00178369
15 *4:11 *16:9 0.0208697
*RES
1 HADDR[23] *16:7 15.0082 
2 *16:7 *16:9 49.3406 
3 *16:9 *16:11 3.41 
4 *16:11 *359:HADDR[23] 74.7411 
*END

*D_NET *17 0.0606166
*CONN
*P HADDR[24] I
*I *359:HADDR[24] I *D ahb_counter
*CAP
1 HADDR[24] 0.0034294
2 *359:HADDR[24] 0.000996629
3 *17:9 0.0128043
4 *17:7 0.0118077
5 *17:5 0.0034294
6 *359:HADDR[24] *359:HWDATA[23] 0
7 *359:HADDR[24] *50:9 0
8 *17:9 *42:11 0.00633509
9 *17:9 *59:11 0
10 *17:9 *63:11 0.00309753
11 *3:9 *17:9 0.0187165
12 *5:9 *17:9 0
*RES
1 HADDR[24] *17:5 67.4554 
2 *17:5 *17:7 3.41 
3 *17:7 *17:9 49.6289 
4 *17:9 *359:HADDR[24] 22.2939 
*END

*D_NET *18 0.0621014
*CONN
*P HADDR[25] I
*I *359:HADDR[25] I *D ahb_counter
*CAP
1 HADDR[25] 0.00312506
2 *359:HADDR[25] 0.00129227
3 *18:9 0.0131505
4 *18:7 0.0118582
5 *18:5 0.00312506
6 *359:HADDR[25] *359:HWDATA[24] 0
7 *359:HADDR[25] *51:7 0
8 *18:9 *43:11 0.00645132
9 *18:9 *59:11 0.00286306
10 *18:9 *60:11 0
11 *5:9 *18:9 0.0202359
12 *6:9 *18:9 0
*RES
1 HADDR[25] *18:5 61.3839 
2 *18:5 *18:7 3.41 
3 *18:7 *18:9 49.9171 
4 *18:9 *359:HADDR[25] 28.3654 
*END

*D_NET *19 0.0617544
*CONN
*P HADDR[26] I
*I *359:HADDR[26] I *D ahb_counter
*CAP
1 HADDR[26] 0.00279361
2 *359:HADDR[26] 0.00166083
3 *19:9 0.0136073
4 *19:7 0.0119464
5 *19:5 0.00279361
6 *359:HADDR[26] *359:HWDATA[25] 0
7 *359:HADDR[26] *52:7 0
8 *19:9 *32:9 0
9 *19:9 *44:11 0.00634271
10 *19:9 *60:11 0.00259611
11 *19:9 *64:11 0
12 *6:9 *19:9 0.0200138
*RES
1 HADDR[26] *19:5 54.7054 
2 *19:5 *19:7 3.41 
3 *19:7 *19:9 50.2054 
4 *19:9 *359:HADDR[26] 35.0439 
*END

*D_NET *20 0.0629594
*CONN
*P HADDR[27] I
*I *359:HADDR[27] I *D ahb_counter
*CAP
1 HADDR[27] 0.000275328
2 *359:HADDR[27] 0.00418444
3 *20:11 0.00418444
4 *20:9 0.0106603
5 *20:7 0.0109356
6 *359:HADDR[27] *359:HWDATA[26] 0
7 *359:HADDR[27] *53:5 0
8 *20:9 *359:HTRANS[1] 0.00103376
9 *20:9 *30:11 0.012885
10 *20:9 *35:11 0.016159
11 *20:9 *67:29 0.000262883
12 *20:9 *70:23 0.00046364
13 *20:9 *72:27 0.000245853
14 *20:9 *79:11 0.00102966
15 *20:9 *85:15 0.000639421
16 *20:9 *89:19 0
17 *20:9 *91:15 0
18 *20:9 *99:11 0
19 *20:9 *107:23 0
20 *16:9 *20:9 0
*RES
1 HADDR[27] *20:7 8.93679 
2 *20:7 *20:9 50.4937 
3 *20:9 *20:11 3.41 
4 *20:11 *359:HADDR[27] 80.8125 
*END

*D_NET *21 0.0615146
*CONN
*P HADDR[28] I
*I *359:HADDR[28] I *D ahb_counter
*CAP
1 HADDR[28] 0.00255498
2 *359:HADDR[28] 0.00199803
3 *21:9 0.0136519
4 *21:7 0.0116539
5 *21:5 0.00255498
6 *359:HADDR[28] *359:HWDATA[27] 0
7 *359:HADDR[28] *54:5 0
8 *359:HADDR[28] *94:17 0
9 *21:9 *28:11 0
10 *21:9 *46:11 0.00740816
11 *21:9 *62:11 0
12 *21:9 *64:11 0.00187787
13 *7:9 *21:9 0.0198148
14 *9:9 *21:9 0
*RES
1 HADDR[28] *21:5 48.6339 
2 *21:5 *21:7 3.41 
3 *21:7 *21:9 50.7819 
4 *21:9 *359:HADDR[28] 41.1154 
*END

*D_NET *22 0.0634376
*CONN
*P HADDR[29] I
*I *359:HADDR[29] I *D ahb_counter
*CAP
1 HADDR[29] 0.00217938
2 *359:HADDR[29] 0.00227222
3 *22:9 0.0143915
4 *22:7 0.0142987
5 *359:HADDR[29] *359:HWDATA[28] 0
6 *359:HADDR[29] *55:5 0
7 *22:9 *25:9 0
8 *22:9 *27:11 0
9 *22:9 *48:11 0.00644299
10 *22:9 *49:11 0
11 *22:9 *62:11 0.0029095
12 *9:9 *22:9 0.0209434
13 *10:9 *22:9 0
*RES
1 HADDR[29] *22:7 45.9725 
2 *22:7 *22:9 51.0702 
3 *22:9 *359:HADDR[29] 47.1868 
*END

*D_NET *23 0.0537701
*CONN
*P HADDR[2] I
*I *359:HADDR[2] I *D ahb_counter
*CAP
1 HADDR[2] 0.000334741
2 *359:HADDR[2] 0.00311936
3 *23:11 0.0132492
4 *23:7 0.0104646
5 *359:HADDR[2] *359:HWDATA[1] 0
6 *359:HADDR[2] *56:5 0
7 *359:HADDR[2] *102:5 0.0029599
8 *23:11 *30:11 0.0233795
9 *23:11 *67:29 0.000262883
10 *4:11 *23:11 0
11 *16:9 *23:11 0
*RES
1 HADDR[2] *23:7 10.1511 
2 *23:7 *23:11 46.1925 
3 *23:11 *359:HADDR[2] 79.5982 
*END

*D_NET *24 0.0647047
*CONN
*P HADDR[30] I
*I *359:HADDR[30] I *D ahb_counter
*CAP
1 HADDR[30] 0.000958261
2 *359:HADDR[30] 0.00330029
3 *24:11 0.00330029
4 *24:9 0.0119016
5 *24:7 0.0128598
6 *359:HADDR[30] HRDATA[1] 0.00056933
7 *359:HADDR[30] *359:HWDATA[29] 0
8 *359:HADDR[30] *57:5 0
9 *24:7 *33:17 0
10 *24:9 *41:11 0.0129557
11 *24:9 *56:9 0
12 *4:11 *24:9 0
13 *8:9 *24:9 0.0188595
*RES
1 HADDR[30] *24:7 21.6868 
2 *24:7 *24:9 51.3585 
3 *24:9 *24:11 3.41 
4 *24:11 *359:HADDR[30] 68.0625 
*END

*D_NET *25 0.0621758
*CONN
*P HADDR[31] I
*I *359:HADDR[31] I *D ahb_counter
*CAP
1 HADDR[31] 0.00188306
2 *359:HADDR[31] 0.00257483
3 *25:11 0.00257483
4 *25:9 0.0129035
5 *25:7 0.0147866
6 *359:HADDR[31] *359:HWDATA[30] 0
7 *359:HADDR[31] *58:5 0
8 *25:7 *359:HREADY 0
9 *25:7 *359:HRESETn 0
10 *25:7 *67:29 0.000205661
11 *25:9 *26:11 0
12 *25:9 *39:11 0
13 *25:9 *45:9 0
14 *25:9 *49:11 0.00727738
15 *10:9 *25:9 0.0199699
16 *22:9 *25:9 0
*RES
1 HADDR[31] *25:7 39.9011 
2 *25:7 *25:9 51.6467 
3 *25:9 *25:11 3.41 
4 *25:11 *359:HADDR[31] 49.8482 
*END

*D_NET *26 0.0431809
*CONN
*P HADDR[3] I
*I *359:HADDR[3] I *D ahb_counter
*CAP
1 HADDR[3] 0.00156035
2 *359:HADDR[3] 0.00284316
3 *26:11 0.0151623
4 *26:7 0.0138795
5 *359:HADDR[3] *359:HWDATA[2] 0
6 *359:HADDR[3] *59:7 0
7 *26:11 *27:11 0
8 *26:11 *45:9 0.002626
9 *10:9 *26:11 0
10 *11:9 *26:11 0.00710961
11 *12:11 *26:11 0
12 *25:9 *26:11 0
*RES
1 HADDR[3] *26:7 35.0439 
2 *26:7 *26:11 46.9853 
3 *26:11 *359:HADDR[3] 54.7054 
*END

*D_NET *27 0.0503368
*CONN
*P HADDR[4] I
*I *359:HADDR[4] I *D ahb_counter
*CAP
1 HADDR[4] 0.00185952
2 *359:HADDR[4] 0.00252601
3 *27:11 0.0149648
4 *27:7 0.0142983
5 *359:HADDR[4] *359:HWDATA[3] 0
6 *359:HADDR[4] *60:7 0
7 *27:11 *28:11 0
8 *9:9 *27:11 0
9 *10:9 *27:11 0.0166882
10 *22:9 *27:11 0
11 *26:11 *27:11 0
*RES
1 HADDR[4] *27:7 41.1154 
2 *27:7 *27:11 47.2735 
3 *27:11 *359:HADDR[4] 48.6339 
*END

*D_NET *28 0.0506111
*CONN
*P HADDR[5] I
*I *359:HADDR[5] I *D ahb_counter
*CAP
1 HADDR[5] 0.00216299
2 *359:HADDR[5] 0.00220713
3 *28:11 0.0137395
4 *28:7 0.0136954
5 *359:HADDR[5] *359:HWDATA[4] 0
6 *359:HADDR[5] *61:7 0
7 *28:11 *32:9 0
8 *7:9 *28:11 0
9 *9:9 *28:11 0.018806
10 *21:9 *28:11 0
11 *27:11 *28:11 0
*RES
1 HADDR[5] *28:7 47.1868 
2 *28:7 *28:11 47.5618 
3 *28:11 *359:HADDR[5] 42.5625 
*END

*D_NET *29 0.0532542
*CONN
*P HADDR[6] I
*I *359:HADDR[6] I *D ahb_counter
*CAP
1 HADDR[6] 0.00096499
2 *359:HADDR[6] 0.00345693
3 *29:11 0.0156028
4 *29:7 0.0131109
5 *359:HADDR[6] *359:HWDATA[5] 0
6 *359:HADDR[6] *62:7 0
7 *8:9 *29:11 0.0201186
8 *12:11 *29:11 0
9 *14:9 *29:11 0
*RES
1 HADDR[6] *29:7 22.9011 
2 *29:7 *29:11 47.8501 
3 *29:11 *359:HADDR[6] 66.8482 
*END

*D_NET *30 0.0626392
*CONN
*P HADDR[7] I
*I *359:HADDR[7] I *D ahb_counter
*CAP
1 HADDR[7] 0.000312174
2 *359:HADDR[7] 0.00415473
3 *30:11 0.0125095
4 *30:7 0.00866691
5 *359:HADDR[7] *359:HWDATA[6] 0
6 *359:HADDR[7] *63:7 0
7 *359:HADDR[7] *103:17 0
8 *30:11 *359:HTRANS[1] 0.000468549
9 *30:11 *67:29 0.000262883
10 *16:9 *30:11 0
11 *20:9 *30:11 0.012885
12 *23:11 *30:11 0.0233795
*RES
1 HADDR[7] *30:7 9.54393 
2 *30:7 *30:11 48.1383 
3 *30:11 *359:HADDR[7] 80.2054 
*END

*D_NET *31 0.0640011
*CONN
*P HADDR[8] I
*I *359:HADDR[8] I *D ahb_counter
*CAP
1 HADDR[8] 0.00395341
2 *359:HADDR[8] 0.000313163
3 *31:9 0.00719601
4 *31:5 0.0108363
5 *359:HADDR[8] *359:HWDATA[7] 0
6 *359:HADDR[8] *64:7 0
7 *31:9 *359:HTRANS[1] 4.16825e-05
8 *31:9 *359:HWDATA[0] 0
9 *31:9 *359:HWDATA[3] 0
10 *31:9 *359:HWDATA[4] 0
11 *31:9 *61:11 0.00263266
12 *1:19 *31:9 0.019519
13 *2:9 *31:9 0
14 *13:9 *31:9 0.0195089
*RES
1 HADDR[8] *31:5 80.2054 
2 *31:5 *31:9 48.4266 
3 *31:9 *359:HADDR[8] 9.54393 
*END

*D_NET *32 0.0550961
*CONN
*P HADDR[9] I
*I *359:HADDR[9] I *D ahb_counter
*CAP
1 HADDR[9] 0.00248532
2 *359:HADDR[9] 0.00189219
3 *32:9 0.0126124
4 *32:5 0.0132055
5 *359:HADDR[9] *359:HWDATA[8] 0
6 *359:HADDR[9] *65:7 0
7 *32:9 *64:11 0.000683716
8 *6:9 *32:9 0
9 *7:9 *32:9 0.024217
10 *19:9 *32:9 0
11 *28:11 *32:9 0
*RES
1 HADDR[9] *32:5 49.8482 
2 *32:5 *32:9 48.7149 
3 *32:9 *359:HADDR[9] 39.9011 
*END

*D_NET *33 0.05294
*CONN
*P HCLK I
*I *359:HCLK I *D ahb_counter
*CAP
1 HCLK 0.0090305
2 *359:HCLK 7.61682e-05
3 *33:17 0.00473624
4 *33:15 0.00466007
5 *33:13 0.0090305
6 *359:HCLK *359:HREADY 0
7 *33:13 *68:13 0.0254065
8 *33:17 *359:HREADY 0
9 *24:7 *33:17 0
*RES
1 HCLK *33:13 49.2199 
2 *33:13 *33:15 3.41 
3 *33:15 *33:17 88.1607 
4 *33:17 *359:HCLK 1.60714 
*END

*D_NET *34 0.0666009
*CONN
*P HRDATA[0] O
*I *359:HRDATA[0] O *D ahb_counter
*CAP
1 HRDATA[0] 0.000829035
2 *359:HRDATA[0] 0.00262577
3 *34:9 0.00727316
4 *34:5 0.0090699
5 HRDATA[0] *55:5 0.00201081
6 *34:5 *359:HSIZE[0] 0
7 *34:5 *86:5 0.00129005
8 *34:9 *45:9 0
9 *34:9 *47:11 0.00768047
10 *34:9 *66:11 0.0128727
11 *359:HADDR[0] *34:5 0
12 *12:11 *34:9 0.00131943
13 *14:9 *34:9 0.0216295
*RES
1 *359:HRDATA[0] *34:5 61.3839 
2 *34:5 *34:9 49.7959 
3 *34:9 HRDATA[0] 28.3654 
*END

*D_NET *35 0.0630514
*CONN
*P HRDATA[10] O
*I *359:HRDATA[10] O *D ahb_counter
*CAP
1 HRDATA[10] 0.000312174
2 *359:HRDATA[10] 0.00415801
3 *35:11 0.00647366
4 *35:5 0.0103195
5 *35:5 *359:HWDATA[10] 0
6 *35:5 *76:19 0
7 *35:11 *359:HTRANS[1] 0.000446442
8 *35:11 *36:11 0.0251826
9 *35:11 *99:11 0
10 *359:HADDR[10] *35:5 0
11 *16:9 *35:11 0
12 *20:9 *35:11 0.016159
*RES
1 *359:HRDATA[10] *35:5 80.2054 
2 *35:5 *35:11 47.8009 
3 *35:11 HRDATA[10] 6.13393 
*END

*D_NET *36 0.0527911
*CONN
*P HRDATA[11] O
*I *359:HRDATA[11] O *D ahb_counter
*CAP
1 HRDATA[11] 0.000334741
2 *359:HRDATA[11] 0.00411955
3 *36:11 0.00946147
4 *36:5 0.0132463
5 *36:5 *359:HWDATA[11] 0
6 *36:11 *359:HTRANS[1] 0.000446442
7 *36:11 *40:11 0
8 *359:HADDR[11] *36:5 0
9 *16:9 *36:11 0
10 *35:11 *36:11 0.0251826
*RES
1 *359:HRDATA[11] *36:5 79.5982 
2 *36:5 *36:11 47.5126 
3 *36:11 HRDATA[11] 6.74107 
*END

*D_NET *37 0.0624423
*CONN
*P HRDATA[12] O
*I *359:HRDATA[12] O *D ahb_counter
*CAP
1 HRDATA[12] 0.00401293
2 *359:HRDATA[12] 0.00627937
3 *37:11 0.00401293
4 *37:9 0.00627937
5 *37:9 *359:HWDATA[12] 0
6 *37:9 *50:9 0.0141982
7 *37:9 *61:11 0.0202477
8 *37:9 *65:11 0
9 *359:HADDR[12] *37:9 0
10 *13:9 *37:9 0.00741171
*RES
1 *359:HRDATA[12] *37:9 49.9483 
2 *37:9 *37:11 3.41 
3 *37:11 HRDATA[12] 80.2054 
*END

*D_NET *38 0.0641916
*CONN
*P HRDATA[13] O
*I *359:HRDATA[13] O *D ahb_counter
*CAP
1 HRDATA[13] 0.00369959
2 *359:HRDATA[13] 0.000633673
3 *38:11 0.00905735
4 *38:7 0.00599143
5 *38:7 *359:HWDATA[13] 0
6 *38:11 *50:9 0
7 *38:11 *51:11 0.0140113
8 *38:11 *63:11 0
9 *38:11 *65:11 0.0224115
10 *359:HADDR[13] *38:7 0
11 *15:9 *38:11 0.00838678
*RES
1 *359:HRDATA[13] *38:7 15.6154 
2 *38:7 *38:11 43.5261 
3 *38:11 HRDATA[13] 74.1339 
*END

*D_NET *39 0.0454619
*CONN
*P HRDATA[14] O
*I *359:HRDATA[14] O *D ahb_counter
*CAP
1 HRDATA[14] 0.00161356
2 *359:HRDATA[14] 0.00282626
3 *39:11 0.0122913
4 *39:5 0.0135041
5 *39:5 *359:HWDATA[14] 0
6 *39:11 *45:9 0.0152266
7 *39:11 *49:11 0
8 *359:HADDR[14] *39:5 0
9 *25:9 *39:11 0
*RES
1 *359:HRDATA[14] *39:5 54.7054 
2 *39:5 *39:11 46.6478 
3 *39:11 HRDATA[14] 31.6339 
*END

*D_NET *40 0.0498433
*CONN
*P HRDATA[15] O
*I *359:HRDATA[15] O *D ahb_counter
*CAP
1 HRDATA[15] 0.000602103
2 *359:HRDATA[15] 0.00383479
3 *40:11 0.00981781
4 *40:5 0.0130505
5 *40:5 *359:HWDATA[15] 0
6 *40:11 *56:9 0.0150782
7 *359:HADDR[15] *40:5 0
8 *16:9 *40:11 0.00745999
9 *36:11 *40:11 0
*RES
1 *359:HRDATA[15] *40:5 74.1339 
2 *40:5 *40:11 46.3595 
3 *40:11 HRDATA[15] 12.2054 
*END

*D_NET *41 0.0450863
*CONN
*P HRDATA[16] O
*I *359:HRDATA[16] O *D ahb_counter
*CAP
1 HRDATA[16] 0.000928017
2 *359:HRDATA[16] 0.00348116
3 *41:11 0.0125841
4 *41:5 0.0151373
5 *41:5 *359:HWDATA[16] 0
6 *41:11 *47:11 0
7 *41:11 *56:9 0
8 *359:HADDR[16] *41:5 0
9 *14:9 *41:11 0
10 *24:9 *41:11 0.0129557
*RES
1 *359:HRDATA[16] *41:5 67.4554 
2 *41:5 *41:11 46.0713 
3 *41:11 HRDATA[16] 18.8839 
*END

*D_NET *42 0.0606132
*CONN
*P HRDATA[17] O
*I *359:HRDATA[17] O *D ahb_counter
*CAP
1 HRDATA[17] 0.00336704
2 *359:HRDATA[17] 0.000948233
3 *42:11 0.00991885
4 *42:7 0.00750004
5 *42:7 *359:HWDATA[17] 0
6 *42:11 *51:11 0
7 *42:11 *52:11 0.0158657