*SPEF "ieee 1481-1999"
*DESIGN "user_project_wrapper"
*DATE "16:03:25 Friday February 28, 2025"
*VENDOR "The OpenROAD Project"
*PROGRAM "OpenROAD"
*VERSION "edf00dff99f6c40d67a30c0e22a8191c5d2ed9d6"
*DESIGN_FLOW "NAME_SCOPE LOCAL" "PIN_CAP NONE"
*DIVIDER /
*DELIMITER :
*BUS_DELIMITER []
*T_UNIT 1 NS
*C_UNIT 1 PF
*R_UNIT 1 OHM
*L_UNIT 1 HENRY

*NAME_MAP
*1 HADDR[0]
*2 HADDR[10]
*3 HADDR[11]
*4 HADDR[12]
*5 HADDR[13]
*6 HADDR[14]
*7 HADDR[15]
*8 HADDR[16]
*9 HADDR[17]
*10 HADDR[18]
*11 HADDR[19]
*12 HADDR[1]
*13 HADDR[20]
*14 HADDR[21]
*15 HADDR[22]
*16 HADDR[23]
*17 HADDR[24]
*18 HADDR[25]
*19 HADDR[26]
*20 HADDR[27]
*21 HADDR[28]
*22 HADDR[29]
*23 HADDR[2]
*24 HADDR[30]
*25 HADDR[31]
*26 HADDR[3]
*27 HADDR[4]
*28 HADDR[5]
*29 HADDR[6]
*30 HADDR[7]
*31 HADDR[8]
*32 HADDR[9]
*33 HCLK
*34 HRDATA[0]
*35 HRDATA[10]
*36 HRDATA[11]
*37 HRDATA[12]
*38 HRDATA[13]
*39 HRDATA[14]
*40 HRDATA[15]
*41 HRDATA[16]
*42 HRDATA[17]
*43 HRDATA[18]
*44 HRDATA[19]
*45 HRDATA[1]
*46 HRDATA[20]
*47 HRDATA[21]
*48 HRDATA[22]
*49 HRDATA[23]
*50 HRDATA[24]
*51 HRDATA[25]
*52 HRDATA[26]
*53 HRDATA[27]
*54 HRDATA[28]
*55 HRDATA[29]
*56 HRDATA[2]
*57 HRDATA[30]
*58 HRDATA[31]
*59 HRDATA[3]
*60 HRDATA[4]
*61 HRDATA[5]
*62 HRDATA[6]
*63 HRDATA[7]
*64 HRDATA[8]
*65 HRDATA[9]
*66 HREADY
*67 HREADYOUT
*68 HRESETn
*69 HSEL
*70 HSIZE[0]
*71 HSIZE[1]
*72 HSIZE[2]
*73 HTRANS[0]
*74 HTRANS[1]
*75 HWDATA[0]
*76 HWDATA[10]
*77 HWDATA[11]
*78 HWDATA[12]
*79 HWDATA[13]
*80 HWDATA[14]
*81 HWDATA[15]
*82 HWDATA[16]
*83 HWDATA[17]
*84 HWDATA[18]
*85 HWDATA[19]
*86 HWDATA[1]
*87 HWDATA[20]
*88 HWDATA[21]
*89 HWDATA[22]
*90 HWDATA[23]
*91 HWDATA[24]
*92 HWDATA[25]
*93 HWDATA[26]
*94 HWDATA[27]
*95 HWDATA[28]
*96 HWDATA[29]
*97 HWDATA[2]
*98 HWDATA[30]
*99 HWDATA[31]
*100 HWDATA[3]
*101 HWDATA[4]
*102 HWDATA[5]
*103 HWDATA[6]
*104 HWDATA[7]
*105 HWDATA[8]
*106 HWDATA[9]
*107 HWRITE
*108 adc0
*109 adc1
*110 comp_n
*111 comp_p
*112 dac0
*113 dac1
*114 gpio0_in[0]
*115 gpio0_in[1]
*116 gpio0_in[2]
*117 gpio0_in[3]
*118 gpio0_in[4]
*119 gpio0_in[5]
*120 gpio0_in[6]
*121 gpio0_in[7]
*122 gpio0_oeb[0]
*123 gpio0_oeb[1]
*124 gpio0_oeb[2]
*125 gpio0_oeb[3]
*126 gpio0_oeb[4]
*127 gpio0_oeb[5]
*128 gpio0_oeb[6]
*129 gpio0_oeb[7]
*130 gpio0_out[0]
*131 gpio0_out[1]
*132 gpio0_out[2]
*133 gpio0_out[3]
*134 gpio0_out[4]
*135 gpio0_out[5]
*136 gpio0_out[6]
*137 gpio0_out[7]
*138 gpio1_in[0]
*139 gpio1_in[1]
*140 gpio1_in[2]
*141 gpio1_in[3]
*142 gpio1_in[4]
*143 gpio1_in[5]
*144 gpio1_in[6]
*145 gpio1_in[7]
*146 gpio1_oeb[0]
*147 gpio1_oeb[1]
*148 gpio1_oeb[2]
*149 gpio1_oeb[3]
*150 gpio1_oeb[4]
*151 gpio1_oeb[5]
*152 gpio1_oeb[6]
*153 gpio1_oeb[7]
*154 gpio1_out[0]
*155 gpio1_out[1]
*156 gpio1_out[2]
*157 gpio1_out[3]
*158 gpio1_out[4]
*159 gpio1_out[5]
*160 gpio1_out[6]
*161 gpio1_out[7]
*162 gpio2_in[0]
*163 gpio2_in[1]
*164 gpio2_in[2]
*165 gpio2_in[3]
*166 gpio2_in[4]
*167 gpio2_in[5]
*168 gpio2_in[6]
*169 gpio2_in[7]
*170 gpio2_oeb[0]
*171 gpio2_oeb[1]
*172 gpio2_oeb[2]
*173 gpio2_oeb[3]
*174 gpio2_oeb[4]
*175 gpio2_oeb[5]
*176 gpio2_oeb[6]
*177 gpio2_oeb[7]
*178 gpio2_out[0]
*179 gpio2_out[1]
*180 gpio2_out[2]
*181 gpio2_out[3]
*182 gpio2_out[4]
*183 gpio2_out[5]
*184 gpio2_out[6]
*185 gpio2_out[7]
*186 gpio3_0_analog
*187 gpio3_1_analog
*188 gpio3_2_analog
*189 gpio3_3_analog
*190 gpio3_4_analog
*191 gpio3_5_analog
*192 gpio3_6_analog
*193 gpio3_7_analog
*194 gpio3_in[0]
*195 gpio3_in[1]
*196 gpio3_in[2]
*197 gpio3_in[3]
*198 gpio3_in[4]
*199 gpio3_in[5]
*200 gpio3_in[6]
*201 gpio3_in[7]
*202 gpio3_oeb[0]
*203 gpio3_oeb[1]
*204 gpio3_oeb[2]
*205 gpio3_oeb[3]
*206 gpio3_oeb[4]
*207 gpio3_oeb[5]
*208 gpio3_oeb[6]
*209 gpio3_oeb[7]
*210 gpio3_out[0]
*211 gpio3_out[1]
*212 gpio3_out[2]
*213 gpio3_out[3]
*214 gpio3_out[4]
*215 gpio3_out[5]
*216 gpio3_out[6]
*217 gpio3_out[7]
*218 gpio4_0_analog
*219 gpio4_1_analog
*220 gpio4_2_analog
*221 gpio4_3_analog
*222 gpio4_4_analog
*223 gpio4_5_analog
*224 gpio4_6_analog
*225 gpio4_7_analog
*226 gpio4_in[0]
*227 gpio4_in[1]
*228 gpio4_in[2]
*229 gpio4_in[3]
*230 gpio4_in[4]
*231 gpio4_in[5]
*232 gpio4_in[6]
*233 gpio4_in[7]
*234 gpio4_oeb[0]
*235 gpio4_oeb[1]
*236 gpio4_oeb[2]
*237 gpio4_oeb[3]
*238 gpio4_oeb[4]
*239 gpio4_oeb[5]
*240 gpio4_oeb[6]
*241 gpio4_oeb[7]
*242 gpio4_out[0]
*243 gpio4_out[1]
*244 gpio4_out[2]
*245 gpio4_out[3]
*246 gpio4_out[4]
*247 gpio4_out[5]
*248 gpio4_out[6]
*249 gpio4_out[7]
*250 gpio5_in[0]
*251 gpio5_in[1]
*252 gpio5_in[2]
*253 gpio5_in[3]
*254 gpio5_in[4]
*255 gpio5_in[5]
*256 gpio5_in[6]
*257 gpio5_in[7]
*258 gpio5_oeb[0]
*259 gpio5_oeb[1]
*260 gpio5_oeb[2]
*261 gpio5_oeb[3]
*262 gpio5_oeb[4]
*263 gpio5_oeb[5]
*264 gpio5_oeb[6]
*265 gpio5_oeb[7]
*266 gpio5_out[0]
*267 gpio5_out[1]
*268 gpio5_out[2]
*269 gpio5_out[3]
*270 gpio5_out[4]
*271 gpio5_out[5]
*272 gpio5_out[6]
*273 gpio5_out[7]
*274 gpio6_in[0]
*275 gpio6_in[1]
*276 gpio6_in[2]
*277 gpio6_in[3]
*278 gpio6_in[4]
*279 gpio6_in[5]
*280 gpio6_in[6]
*281 gpio6_in[7]
*282 gpio6_oeb[0]
*283 gpio6_oeb[1]
*284 gpio6_oeb[2]
*285 gpio6_oeb[3]
*286 gpio6_oeb[4]
*287 gpio6_oeb[5]
*288 gpio6_oeb[6]
*289 gpio6_oeb[7]
*290 gpio6_out[0]
*291 gpio6_out[1]
*292 gpio6_out[2]
*293 gpio6_out[3]
*294 gpio6_out[4]
*295 gpio6_out[5]
*296 gpio6_out[6]
*297 gpio6_out[7]
*298 gpio7_in[0]
*299 gpio7_in[1]
*300 gpio7_in[2]
*301 gpio7_in[3]
*302 gpio7_in[4]
*303 gpio7_in[5]
*304 gpio7_in[6]
*305 gpio7_in[7]
*306 gpio7_oeb[0]
*307 gpio7_oeb[1]
*308 gpio7_oeb[2]
*309 gpio7_oeb[3]
*310 gpio7_oeb[4]
*311 gpio7_oeb[5]
*312 gpio7_oeb[6]
*313 gpio7_oeb[7]
*314 gpio7_out[0]
*315 gpio7_out[1]
*316 gpio7_out[2]
*317 gpio7_out[3]
*318 gpio7_out[4]
*319 gpio7_out[5]
*320 gpio7_out[6]
*321 gpio7_out[7]
*322 ibias100
*323 ibias50
*324 left_vref
*325 right_vref
*326 sio_in[0]
*327 sio_in[1]
*328 sio_oeb[0]
*329 sio_oeb[1]
*330 sio_out[0]
*331 sio_out[1]
*332 tempsense
*333 ulpcomp_n
*334 ulpcomp_p
*335 user_irq[0]
*336 user_irq[10]
*337 user_irq[11]
*338 user_irq[12]
*339 user_irq[13]
*340 user_irq[14]
*341 user_irq[15]
*342 user_irq[1]
*343 user_irq[2]
*344 user_irq[3]
*345 user_irq[4]
*346 user_irq[5]
*347 user_irq[6]
*348 user_irq[7]
*349 user_irq[8]
*350 user_irq[9]
*351 vbgsc
*352 vbgtc
*357 vinref
*358 voutref
*359 frigate_prj

*PORTS
HADDR[0] I
HADDR[10] I
HADDR[11] I
HADDR[12] I
HADDR[13] I
HADDR[14] I
HADDR[15] I
HADDR[16] I
HADDR[17] I
HADDR[18] I
HADDR[19] I
HADDR[1] I
HADDR[20] I
HADDR[21] I
HADDR[22] I
HADDR[23] I
HADDR[24] I
HADDR[25] I
HADDR[26] I
HADDR[27] I
HADDR[28] I
HADDR[29] I
HADDR[2] I
HADDR[30] I
HADDR[31] I
HADDR[3] I
HADDR[4] I
HADDR[5] I
HADDR[6] I
HADDR[7] I
HADDR[8] I
HADDR[9] I
HCLK I
HRDATA[0] O
HRDATA[10] O
HRDATA[11] O
HRDATA[12] O
HRDATA[13] O
HRDATA[14] O
HRDATA[15] O
HRDATA[16] O
HRDATA[17] O
HRDATA[18] O
HRDATA[19] O
HRDATA[1] O
HRDATA[20] O
HRDATA[21] O
HRDATA[22] O
HRDATA[23] O
HRDATA[24] O
HRDATA[25] O
HRDATA[26] O
HRDATA[27] O
HRDATA[28] O
HRDATA[29] O
HRDATA[2] O
HRDATA[30] O
HRDATA[31] O
HRDATA[3] O
HRDATA[4] O
HRDATA[5] O
HRDATA[6] O
HRDATA[7] O
HRDATA[8] O
HRDATA[9] O
HREADY I
HREADYOUT O
HRESETn I
HSEL I
HSIZE[0] I
HSIZE[1] I
HSIZE[2] I
HTRANS[0] I
HTRANS[1] I
HWDATA[0] I
HWDATA[10] I
HWDATA[11] I
HWDATA[12] I
HWDATA[13] I
HWDATA[14] I
HWDATA[15] I
HWDATA[16] I
HWDATA[17] I
HWDATA[18] I
HWDATA[19] I
HWDATA[1] I
HWDATA[20] I
HWDATA[21] I
HWDATA[22] I
HWDATA[23] I
HWDATA[24] I
HWDATA[25] I
HWDATA[26] I
HWDATA[27] I
HWDATA[28] I
HWDATA[29] I
HWDATA[2] I
HWDATA[30] I
HWDATA[31] I
HWDATA[3] I
HWDATA[4] I
HWDATA[5] I
HWDATA[6] I
HWDATA[7] I
HWDATA[8] I
HWDATA[9] I
HWRITE I
adc0 I
adc1 I
comp_n I
comp_p I
dac0 I
dac1 I
gpio0_in[0] I
gpio0_in[1] I
gpio0_in[2] I
gpio0_in[3] I
gpio0_in[4] I
gpio0_in[5] I
gpio0_in[6] I
gpio0_in[7] I
gpio0_oeb[0] O
gpio0_oeb[1] O
gpio0_oeb[2] O
gpio0_oeb[3] O
gpio0_oeb[4] O
gpio0_oeb[5] O
gpio0_oeb[6] O
gpio0_oeb[7] O
gpio0_out[0] O
gpio0_out[1] O
gpio0_out[2] O
gpio0_out[3] O
gpio0_out[4] O
gpio0_out[5] O
gpio0_out[6] O
gpio0_out[7] O
gpio1_in[0] I
gpio1_in[1] I
gpio1_in[2] I
gpio1_in[3] I
gpio1_in[4] I
gpio1_in[5] I
gpio1_in[6] I
gpio1_in[7] I
gpio1_oeb[0] O
gpio1_oeb[1] O
gpio1_oeb[2] O
gpio1_oeb[3] O
gpio1_oeb[4] O
gpio1_oeb[5] O
gpio1_oeb[6] O
gpio1_oeb[7] O
gpio1_out[0] O
gpio1_out[1] O
gpio1_out[2] O
gpio1_out[3] O
gpio1_out[4] O
gpio1_out[5] O
gpio1_out[6] O
gpio1_out[7] O
gpio2_in[0] I
gpio2_in[1] I
gpio2_in[2] I
gpio2_in[3] I
gpio2_in[4] I
gpio2_in[5] I
gpio2_in[6] I
gpio2_in[7] I
gpio2_oeb[0] O
gpio2_oeb[1] O
gpio2_oeb[2] O
gpio2_oeb[3] O
gpio2_oeb[4] O
gpio2_oeb[5] O
gpio2_oeb[6] O
gpio2_oeb[7] O
gpio2_out[0] O
gpio2_out[1] O
gpio2_out[2] O
gpio2_out[3] O
gpio2_out[4] O
gpio2_out[5] O
gpio2_out[6] O
gpio2_out[7] O
gpio3_0_analog I
gpio3_1_analog I
gpio3_2_analog I
gpio3_3_analog I
gpio3_4_analog I
gpio3_5_analog I
gpio3_6_analog I
gpio3_7_analog I
gpio3_in[0] I
gpio3_in[1] I
gpio3_in[2] I
gpio3_in[3] I
gpio3_in[4] I
gpio3_in[5] I
gpio3_in[6] I
gpio3_in[7] I
gpio3_oeb[0] O
gpio3_oeb[1] O
gpio3_oeb[2] O
gpio3_oeb[3] O
gpio3_oeb[4] O
gpio3_oeb[5] O
gpio3_oeb[6] O
gpio3_oeb[7] O
gpio3_out[0] O
gpio3_out[1] O
gpio3_out[2] O
gpio3_out[3] O
gpio3_out[4] O
gpio3_out[5] O
gpio3_out[6] O
gpio3_out[7] O
gpio4_0_analog I
gpio4_1_analog I
gpio4_2_analog I
gpio4_3_analog I
gpio4_4_analog I
gpio4_5_analog I
gpio4_6_analog I
gpio4_7_analog I
gpio4_in[0] I
gpio4_in[1] I
gpio4_in[2] I
gpio4_in[3] I
gpio4_in[4] I
gpio4_in[5] I
gpio4_in[6] I
gpio4_in[7] I
gpio4_oeb[0] O
gpio4_oeb[1] O
gpio4_oeb[2] O
gpio4_oeb[3] O
gpio4_oeb[4] O
gpio4_oeb[5] O
gpio4_oeb[6] O
gpio4_oeb[7] O
gpio4_out[0] O
gpio4_out[1] O
gpio4_out[2] O
gpio4_out[3] O
gpio4_out[4] O
gpio4_out[5] O
gpio4_out[6] O
gpio4_out[7] O
gpio5_in[0] I
gpio5_in[1] I
gpio5_in[2] I
gpio5_in[3] I
gpio5_in[4] I
gpio5_in[5] I
gpio5_in[6] I
gpio5_in[7] I
gpio5_oeb[0] O
gpio5_oeb[1] O
gpio5_oeb[2] O
gpio5_oeb[3] O
gpio5_oeb[4] O
gpio5_oeb[5] O
gpio5_oeb[6] O
gpio5_oeb[7] O
gpio5_out[0] O
gpio5_out[1] O
gpio5_out[2] O
gpio5_out[3] O
gpio5_out[4] O
gpio5_out[5] O
gpio5_out[6] O
gpio5_out[7] O
gpio6_in[0] I
gpio6_in[1] I
gpio6_in[2] I
gpio6_in[3] I
gpio6_in[4] I
gpio6_in[5] I
gpio6_in[6] I
gpio6_in[7] I
gpio6_oeb[0] O
gpio6_oeb[1] O
gpio6_oeb[2] O
gpio6_oeb[3] O
gpio6_oeb[4] O
gpio6_oeb[5] O
gpio6_oeb[6] O
gpio6_oeb[7] O
gpio6_out[0] O
gpio6_out[1] O
gpio6_out[2] O
gpio6_out[3] O
gpio6_out[4] O
gpio6_out[5] O
gpio6_out[6] O
gpio6_out[7] O
gpio7_in[0] I
gpio7_in[1] I
gpio7_in[2] I
gpio7_in[3] I
gpio7_in[4] I
gpio7_in[5] I
gpio7_in[6] I
gpio7_in[7] I
gpio7_oeb[0] O
gpio7_oeb[1] O
gpio7_oeb[2] O
gpio7_oeb[3] O
gpio7_oeb[4] O
gpio7_oeb[5] O
gpio7_oeb[6] O
gpio7_oeb[7] O
gpio7_out[0] O
gpio7_out[1] O
gpio7_out[2] O
gpio7_out[3] O
gpio7_out[4] O
gpio7_out[5] O
gpio7_out[6] O
gpio7_out[7] O
ibias100 I
ibias50 I
left_vref I
right_vref I
sio_in[0] I
sio_in[1] I
sio_oeb[0] O
sio_oeb[1] O
sio_out[0] O
sio_out[1] O
tempsense I
ulpcomp_n I
ulpcomp_p I
user_irq[0] O
user_irq[10] O
user_irq[11] O
user_irq[12] O
user_irq[13] O
user_irq[14] O
user_irq[15] O
user_irq[1] O
user_irq[2] O
user_irq[3] O
user_irq[4] O
user_irq[5] O
user_irq[6] O
user_irq[7] O
user_irq[8] O
user_irq[9] O
vbgsc I
vbgtc I
vinref I
voutref I

*D_NET *1 0.0505907
*CONN
*P HADDR[0] I
*I *359:HADDR[0] I *D ahb_counter
*CAP
1 HADDR[0] 0.000699622
2 *359:HADDR[0] 0.000299005
3 *1:17 0.0102113
4 *1:15 0.00991228
5 *1:13 0.00349982
6 *1:11 0.00419945
7 *359:HADDR[0] *359:HWRITE 0
8 *359:HADDR[0] *34:5 0
9 *1:11 *69:13 0
10 *1:13 *12:7 0.00211816
11 *1:17 *359:HWDATA[0] 0
12 *1:17 *31:9 0.0196414
13 *1:17 *67:23 9.75158e-06
*RES
1 HADDR[0] *1:11 20.3195 
2 *1:11 *1:13 90.9979 
3 *1:13 *1:15 8 
4 *1:15 *1:17 46.5099 
5 *1:17 *359:HADDR[0] 14.4111 
*END

*D_NET *2 0.0572058
*CONN
*P HADDR[10] I
*I *359:HADDR[10] I *D ahb_counter
*CAP
1 HADDR[10] 0.00379942
2 *359:HADDR[10] 0.000661063
3 *2:9 0.0126833
4 *2:7 0.0120223
5 *2:5 0.00379942
6 *359:HADDR[10] *359:HWDATA[9] 0
7 *359:HADDR[10] *35:5 0
8 *2:9 *359:HWDATA[2] 0
9 *2:9 *359:HWDATA[5] 0.00380371
10 *2:9 *3:9 0
11 *2:9 *13:9 0
12 *2:9 *15:9 0.0197724
13 *2:9 *31:9 0
14 *2:9 *65:9 0.000664221
*RES
1 HADDR[10] *2:5 85.9954 
2 *2:5 *2:7 8 
3 *2:7 *2:9 54.3237 
4 *2:9 *359:HADDR[10] 22.1582 
*END

*D_NET *3 0.0581277
*CONN
*P HADDR[11] I
*I *359:HADDR[11] I *D ahb_counter
*CAP
1 HADDR[11] 0.00350463
2 *359:HADDR[11] 0.000981971
3 *3:9 0.0131917
4 *3:7 0.0122098
5 *3:5 0.00350463
6 *359:HADDR[11] *359:HWDATA[10] 0
7 *359:HADDR[11] *36:5 0
8 *3:9 *359:HWDATA[1] 0.00265966
9 *3:9 *5:9 0
10 *3:9 *15:9 0
11 *3:9 *17:9 0.0186031
12 *3:9 *63:9 0.0034722
13 *2:9 *3:9 0
*RES
1 HADDR[11] *3:5 78.9525 
2 *3:5 *3:7 8 
3 *3:7 *3:9 54.6672 
4 *3:9 *359:HADDR[11] 29.2011 
*END

*D_NET *4 0.0621174
*CONN
*P HADDR[12] I
*I *359:HADDR[12] I *D ahb_counter
*CAP
1 HADDR[12] 0.000655252
2 *359:HADDR[12] 0.00403845
3 *4:11 0.00403845
4 *4:9 0.0109908
5 *4:7 0.0116461
6 *359:HADDR[12] *359:HWDATA[11] 0
7 *359:HADDR[12] *37:7 0
8 *4:9 *16:9 0.0209725
9 *4:9 *23:9 0
10 *4:9 *24:9 0
11 *4:9 *56:9 0.00977585
*RES
1 HADDR[12] *4:7 22.1582 
2 *4:7 *4:9 55.0107 
3 *4:9 *4:11 8 
4 *4:11 *359:HADDR[12] 85.9954 
*END

*D_NET *5 0.0613772
*CONN
*P HADDR[13] I
*I *359:HADDR[13] I *D ahb_counter
*CAP
1 HADDR[13] 0.00321089
2 *359:HADDR[13] 0.00133102
3 *5:9 0.0126248
4 *5:7 0.0112938
5 *5:5 0.00321089
6 *359:HADDR[13] *359:HWDATA[12] 0
7 *359:HADDR[13] *38:7 0
8 *5:9 *17:9 0
9 *5:9 *18:9 0.0203284
10 *5:9 *59:9 0.00937734
11 *3:9 *5:9 0
*RES
1 HADDR[13] *5:5 71.9096 
2 *5:5 *5:7 8 
3 *5:7 *5:9 55.3541 
4 *5:9 *359:HADDR[13] 36.2439 
*END

*D_NET *6 0.0616284
*CONN
*P HADDR[14] I
*I *359:HADDR[14] I *D ahb_counter
*CAP
1 HADDR[14] 0.00287839
2 *359:HADDR[14] 0.00169111
3 *6:9 0.0134276
4 *6:7 0.0117365
5 *6:5 0.00287839
6 *359:HADDR[14] *359:HWDATA[13] 0
7 *359:HADDR[14] *39:5 0
8 *6:9 *18:9 0
9 *6:9 *19:9 0.0198916
10 *6:9 *32:9 0
11 *6:9 *60:9 0.00912474
*RES
1 HADDR[14] *6:5 64.1625 
2 *6:5 *6:7 8 
3 *6:7 *6:9 55.6976 
4 *6:9 *359:HADDR[14] 43.9911 
*END

*D_NET *7 0.0723808
*CONN
*P HADDR[15] I
*I *359:HADDR[15] I *D ahb_counter
*CAP
1 HADDR[15] 0.00256883
2 *359:HADDR[15] 0.00203319
3 *7:11 0.00203319
4 *7:9 0.00792526
5 *7:7 0.00792526
6 *7:5 0.00256883
7 *359:HADDR[15] *359:HWDATA[14] 0
8 *359:HADDR[15] *40:5 0
9 *7:9 *21:9 0.0199033
10 *7:9 *28:9 0
11 *7:9 *32:9 0.024334
12 *7:9 *64:9 0.00308892
*RES
1 HADDR[15] *7:5 57.1196 
2 *7:5 *7:7 8 
3 *7:7 *7:9 56.0411 
4 *7:9 *7:11 8 
5 *7:11 *359:HADDR[15] 43.0339 
*END

*D_NET *8 0.0685314
*CONN
*P HADDR[16] I
*I *359:HADDR[16] I *D ahb_counter
*CAP
1 HADDR[16] 0.0010091
2 *359:HADDR[16] 0.00366332
3 *8:11 0.00366332
4 *8:9 0.010219
5 *8:7 0.0112281
6 *359:HADDR[16] *359:HWDATA[15] 0
7 *359:HADDR[16] *41:5 0
8 *8:9 *14:9 0
9 *8:9 *24:9 0.0187475
10 *8:9 *29:9 0.020001
*RES
1 HADDR[16] *8:7 29.9054 
2 *8:7 *8:9 56.3845 
3 *8:9 *8:11 8 
4 *8:11 *359:HADDR[16] 78.2482 
*END

*D_NET *9 0.0751964
*CONN
*P HADDR[17] I
*I *359:HADDR[17] I *D ahb_counter
*CAP
1 HADDR[17] 0.00226205
2 *359:HADDR[17] 0.00236566
3 *9:11 0.00236566
4 *9:9 0.00782121
5 *9:7 0.00782121
6 *9:5 0.00226205
7 *359:HADDR[17] *359:HWDATA[16] 0
8 *359:HADDR[17] *42:7 0
9 *9:9 *21:9 0
10 *9:9 *22:9 0.0210328
11 *9:9 *27:9 0
12 *9:9 *28:9 0.0189
13 *9:9 *62:9 0.0103657
*RES
1 HADDR[17] *9:5 50.0768 
2 *9:5 *9:7 8 
3 *9:7 *9:9 56.728 
4 *9:9 *9:11 8 
5 *9:11 *359:HADDR[17] 50.0768 
*END

*D_NET *10 0.0675944
*CONN
*P HADDR[18] I
*I *359:HADDR[18] I *D ahb_counter
*CAP
1 HADDR[18] 0.00194735
2 *359:HADDR[18] 0.00267099
3 *10:11 0.00267099
4 *10:9 0.010961
5 *10:7 0.010961
6 *10:5 0.00194735
7 *359:HADDR[18] *359:HWDATA[17] 0
8 *359:HADDR[18] *43:7 0
9 *10:9 *22:9 0
10 *10:9 *25:9 0.0198475
11 *10:9 *26:9 0
12 *10:9 *27:9 0.0165881
*RES
1 HADDR[18] *10:5 43.0339 
2 *10:5 *10:7 8 
3 *10:7 *10:9 57.0715 
4 *10:9 *10:11 8 
5 *10:11 *359:HADDR[18] 57.1196 
*END

*D_NET *11 0.059017
*CONN
*P HADDR[19] I
*I *359:HADDR[19] I *D ahb_counter
*CAP
1 HADDR[19] 0.00160693
2 *359:HADDR[19] 0.00307717
3 *11:11 0.00307717
4 *11:9 0.0123618
5 *11:7 0.0139687
6 *359:HADDR[19] *359:HWDATA[18] 0
7 *359:HADDR[19] *44:7 0
8 *11:9 *12:9 0
9 *11:9 *26:9 0.00676683
10 *11:9 *45:9 0.0181585
11 *11:9 *66:9 0
*RES
1 HADDR[19] *11:7 43.2868 
2 *11:7 *11:9 57.4149 
3 *11:9 *11:11 8 
4 *11:11 *359:HADDR[19] 64.8668 
*END

*D_NET *12 0.045979
*CONN
*P HADDR[1] I
*I *359:HADDR[1] I *D ahb_counter
*CAP
1 HADDR[1] 0.000865165
2 *359:HADDR[1] 0.0027415
3 *12:11 0.0027415
4 *12:9 0.0127343
5 *12:7 0.0135994
6 *359:HADDR[1] *359:HWDATA[0] 0
7 *359:HADDR[1] *45:5 0
8 *359:HADDR[1] *100:5 0.0015335
9 *12:9 *14:9 0.00507862
10 *12:9 *26:9 0
11 *12:9 *29:9 0
12 *12:9 *34:9 0.00132635
13 *12:9 *66:9 0.00324043
14 *1:13 *12:7 0.00211816
15 *11:9 *12:9 0
*RES
1 HADDR[1] *12:7 37.6525 
2 *12:7 *12:9 49.4293 
3 *12:9 *12:11 8 
4 *12:11 *359:HADDR[1] 70.5011 
*END

*D_NET *13 0.0626552
*CONN
*P HADDR[20] I
*I *359:HADDR[20] I *D ahb_counter
*CAP
1 HADDR[20] 0.00419743
2 *359:HADDR[20] 0.000372083
3 *13:9 0.0115463
4 *13:7 0.0111742
5 *13:5 0.00419743
6 *359:HADDR[20] *359:HWDATA[19] 0
7 *359:HADDR[20] *46:5 0
8 *13:9 *359:HWDATA[2] 0.00179539
9 *13:9 *359:HWDATA[5] 0
10 *13:9 *31:9 0.0196411
11 *13:9 *37:9 0.00744327
12 *13:9 *61:9 0.00228816
13 *13:9 *65:9 0
14 *2:9 *13:9 0
*RES
1 HADDR[20] *13:5 92.3339 
2 *13:5 *13:7 8 
3 *13:7 *13:9 57.7584 
4 *13:9 *359:HADDR[20] 15.8196 
*END

*D_NET *14 0.0604507
*CONN
*P HADDR[21] I
*I *359:HADDR[21] I *D ahb_counter
*CAP
1 HADDR[21] 0.00131166
2 *359:HADDR[21] 0.00338978
3 *14:11 0.00338978
4 *14:9 0.0121137
5 *14:7 0.0134254
6 *359:HADDR[21] *359:HWDATA[20] 0
7 *359:HADDR[21] *47:5 0
8 *14:9 *29:9 0
9 *14:9 *34:9 0.0217418
10 *14:9 *41:9 0
11 *8:9 *14:9 0
12 *12:9 *14:9 0.00507862
*RES
1 HADDR[21] *14:7 36.2439 
2 *14:7 *14:9 58.1019 
3 *14:9 *14:11 8 
4 *14:11 *359:HADDR[21] 71.9096 
*END

*D_NET *15 0.0633967
*CONN
*P HADDR[22] I
*I *359:HADDR[22] I *D ahb_counter
*CAP
1 HADDR[22] 0.00388893
2 *359:HADDR[22] 0.00070329
3 *15:9 0.0128509
4 *15:7 0.0121476
5 *15:5 0.00388893
6 *359:HADDR[22] *359:HWDATA[21] 0
7 *359:HADDR[22] *48:5 0
8 *15:9 *359:HWDATA[1] 0
9 *15:9 *38:9 0.00842529
10 *15:9 *63:9 0
11 *15:9 *65:9 0.00171923
12 *2:9 *15:9 0.0197724
13 *3:9 *15:9 0
*RES
1 HADDR[22] *15:5 85.2911 
2 *15:5 *15:7 8 
3 *15:7 *15:9 58.4453 
4 *15:9 *359:HADDR[22] 22.8625 
*END

*D_NET *16 0.0638307
*CONN
*P HADDR[23] I
*I *359:HADDR[23] I *D ahb_counter
*CAP
1 HADDR[23] 0.000618886
2 *359:HADDR[23] 0.00408071
3 *16:11 0.00408071
4 *16:9 0.01213
5 *16:7 0.0127488
6 *359:HADDR[23] *359:HWDATA[22] 0
7 *359:HADDR[23] *49:5 0
8 *16:9 *20:9 0
9 *16:9 *23:9 0
10 *16:9 *30:9 0
11 *16:9 *35:9 0
12 *16:9 *36:9 0
13 *16:9 *40:9 0.00750167
14 *16:9 *56:9 0.00169742
15 *4:9 *16:9 0.0209725
*RES
1 HADDR[23] *16:7 21.4539 
2 *16:7 *16:9 58.7888 
3 *16:9 *16:11 8 
4 *16:11 *359:HADDR[23] 86.6996 
*END

*D_NET *17 0.0632957
*CONN
*P HADDR[24] I
*I *359:HADDR[24] I *D ahb_counter
*CAP
1 HADDR[24] 0.00359415
2 *359:HADDR[24] 0.00104483
3 *17:9 0.0141653
4 *17:7 0.0131205
5 *17:5 0.00359415
6 *359:HADDR[24] *359:HWDATA[23] 0
7 *359:HADDR[24] *50:7 0
8 *17:9 *42:9 0.00629547
9 *17:9 *59:9 0
10 *17:9 *63:9 0.00287826
11 *3:9 *17:9 0.0186031
12 *5:9 *17:9 0
*RES
1 HADDR[24] *17:5 78.2482 
2 *17:5 *17:7 8 
3 *17:7 *17:9 59.1323 
4 *17:9 *359:HADDR[24] 29.9054 
*END

*D_NET *18 0.06391
*CONN
*P HADDR[25] I
*I *359:HADDR[25] I *D ahb_counter
*CAP
1 HADDR[25] 0.00327601
2 *359:HADDR[25] 0.00136336
3 *18:9 0.013912
4 *18:7 0.0125486
5 *18:5 0.00327601
6 *359:HADDR[25] *359:HWDATA[24] 0
7 *359:HADDR[25] *51:7 0
8 *18:9 *43:9 0.00647912
9 *18:9 *59:9 0.00272653
10 *18:9 *60:9 0
11 *5:9 *18:9 0.0203284
12 *6:9 *18:9 0
*RES
1 HADDR[25] *18:5 71.2054 
2 *18:5 *18:7 8 
3 *18:7 *18:9 59.4757 
4 *18:9 *359:HADDR[25] 36.9482 
*END

*D_NET *19 0.0645679
*CONN
*P HADDR[26] I
*I *359:HADDR[26] I *D ahb_counter
*CAP
1 HADDR[26] 0.00293217
2 *359:HADDR[26] 0.00174812
3 *19:9 0.0150458
4 *19:7 0.0132977
5 *19:5 0.00293217
6 *359:HADDR[26] *359:HWDATA[25] 0
7 *359:HADDR[26] *52:7 0
8 *19:9 *32:9 0
9 *19:9 *44:9 0.00630541
10 *19:9 *60:9 0.00241497
11 *19:9 *64:9 0
12 *6:9 *19:9 0.0198916
*RES
1 HADDR[26] *19:5 63.4582 
2 *19:5 *19:7 8 
3 *19:7 *19:9 59.8192 
4 *19:9 *359:HADDR[26] 44.6954 
*END

*D_NET *20 0.0662317
*CONN
*P HADDR[27] I
*I *359:HADDR[27] I *D ahb_counter
*CAP
1 HADDR[27] 0.000287679
2 *359:HADDR[27] 0.00441193
3 *20:11 0.00441193
4 *20:9 0.012031
5 *20:7 0.0123187
6 *359:HADDR[27] *359:HWDATA[26] 0
7 *359:HADDR[27] *53:5 0
8 *20:9 *30:9 0.0129424
9 *20:9 *35:9 0.0162446
10 *20:9 *67:23 0.000274309
11 *20:9 *70:23 0.000434954
12 *20:9 *72:25 0.000230326
13 *20:9 *74:29 0.00107869
14 *20:9 *79:11 0.0009663
15 *20:9 *85:15 0.000598925
16 *20:9 *89:19 0
17 *20:9 *91:15 0
18 *20:9 *99:11 0
19 *20:9 *107:23 0
20 *16:9 *20:9 0
*RES
1 HADDR[27] *20:7 14.4111 
2 *20:7 *20:9 60.1627 
3 *20:9 *20:11 8 
4 *20:11 *359:HADDR[27] 93.7425 
*END

*D_NET *21 0.0647899
*CONN
*P HADDR[28] I
*I *359:HADDR[28] I *D ahb_counter
*CAP
1 HADDR[28] 0.00266863
2 *359:HADDR[28] 0.00210191
3 *21:11 0.00210191
4 *21:9 0.0130418
5 *21:7 0.0130418
6 *21:5 0.00266863
7 *359:HADDR[28] *359:HWDATA[27] 0
8 *359:HADDR[28] *54:5 0
9 *359:HADDR[28] *94:17 0
10 *21:9 *28:9 0
11 *21:9 *46:9 0.0074384
12 *21:9 *62:9 0
13 *21:9 *64:9 0.00182352
14 *7:9 *21:9 0.0199033
15 *9:9 *21:9 0
*RES
1 HADDR[28] *21:5 56.4154 
2 *21:5 *21:7 8 
3 *21:7 *21:9 60.5061 
4 *21:9 *21:11 8 
5 *21:11 *359:HADDR[28] 43.7382 
*END

*D_NET *22 0.0653144
*CONN
*P HADDR[29] I
*I *359:HADDR[29] I *D ahb_counter
*CAP
1 HADDR[29] 0.00228968
2 *359:HADDR[29] 0.00239854
3 *22:11 0.00239854
4 *22:9 0.0128336
5 *22:7 0.0128336
6 *22:5 0.00228968
7 *359:HADDR[29] *359:HWDATA[28] 0
8 *359:HADDR[29] *55:5 0
9 *22:9 *25:9 0
10 *22:9 *27:9 0
11 *22:9 *48:9 0.00646878
12 *22:9 *49:9 0
13 *22:9 *62:9 0.00276912
14 *9:9 *22:9 0.0210328
15 *10:9 *22:9 0
*RES
1 HADDR[29] *22:5 49.3725 
2 *22:5 *22:7 8 
3 *22:7 *22:9 60.8496 
4 *22:9 *22:11 8 
5 *22:11 *359:HADDR[29] 50.7811 
*END

*D_NET *23 0.056705
*CONN
*P HADDR[2] I
*I *359:HADDR[2] I *D ahb_counter
*CAP
1 HADDR[2] 0.00034938
2 *359:HADDR[2] 0.00335785
3 *23:11 0.00335785
4 *23:9 0.0112213
5 *23:7 0.0115707
6 *359:HADDR[2] *359:HWDATA[1] 0
7 *359:HADDR[2] *56:5 0
8 *359:HADDR[2] *102:5 0.00308397
9 *23:9 *30:9 0.0234896
10 *23:9 *67:23 0.000274309
11 *4:9 *23:9 0
12 *16:9 *23:9 0
*RES
1 HADDR[2] *23:7 15.8196 
2 *23:7 *23:9 50.9749 
3 *23:9 *23:11 8 
4 *23:11 *359:HADDR[2] 92.3339 
*END

*D_NET *24 0.0675746
*CONN
*P HADDR[30] I
*I *359:HADDR[30] I *D ahb_counter
*CAP
1 HADDR[30] 0.00100002
2 *359:HADDR[30] 0.00347941
3 *24:11 0.00347941
4 *24:9 0.013198
5 *24:7 0.014198
6 *359:HADDR[30] HRDATA[1] 0.00059317
7 *359:HADDR[30] *359:HWDATA[29] 0
8 *359:HADDR[30] *57:5 0
9 *24:7 *33:17 0
10 *24:9 *41:9 0.0128791
11 *24:9 *56:9 0
12 *4:9 *24:9 0
13 *8:9 *24:9 0.0187475
*RES
1 HADDR[30] *24:7 29.2011 
2 *24:7 *24:9 61.1931 
3 *24:9 *24:11 8 
4 *24:11 *359:HADDR[30] 78.9525 
*END

*D_NET *25 0.0647433
*CONN
*P HADDR[31] I
*I *359:HADDR[31] I *D ahb_counter
*CAP
1 HADDR[31] 0.0019841
2 *359:HADDR[31] 0.00271324
3 *25:11 0.00271324
4 *25:9 0.0141339
5 *25:7 0.0141339
6 *25:5 0.0019841
7 *359:HADDR[31] *359:HWDATA[30] 0
8 *359:HADDR[31] *58:5 0
9 *25:5 *359:HREADY 0
10 *25:5 *359:HRESETn 0
11 *25:9 *26:9 0
12 *25:9 *39:9 0
13 *25:9 *45:9 0
14 *25:9 *49:9 0.00723337
15 *10:9 *25:9 0.0198475
16 *22:9 *25:9 0
*RES
1 HADDR[31] *25:5 42.3296 
2 *25:5 *25:7 8 
3 *25:7 *25:9 61.5365 
4 *25:9 *25:11 8 
5 *25:11 *359:HADDR[31] 57.8239 
*END

*D_NET *26 0.0457952
*CONN
*P HADDR[3] I
*I *359:HADDR[3] I *D ahb_counter
*CAP
1 HADDR[3] 0.00161979
2 *359:HADDR[3] 0.0030003
3 *26:11 0.0030003
4 *26:9 0.0135723
5 *26:7 0.0151921
6 *359:HADDR[3] *359:HWDATA[2] 0
7 *359:HADDR[3] *59:7 0
8 *26:9 *27:9 0
9 *26:9 *45:9 0.00264366
10 *10:9 *26:9 0
11 *11:9 *26:9 0.00676683
12 *12:9 *26:9 0
13 *25:9 *26:9 0
*RES
1 HADDR[3] *26:7 44.6954 
2 *26:7 *26:9 51.9195 
3 *26:9 *26:11 8 
4 *26:11 *359:HADDR[3] 63.4582 
*END

*D_NET *27 0.0518532
*CONN
*P HADDR[4] I
*I *359:HADDR[4] I *D ahb_counter
*CAP
1 HADDR[4] 0.00192765
2 *359:HADDR[4] 0.00266632
3 *27:11 0.00266632
4 *27:9 0.0130386
5 *27:7 0.0130386
6 *27:5 0.00192765
7 *359:HADDR[4] *359:HWDATA[3] 0
8 *359:HADDR[4] *60:7 0
9 *27:9 *28:9 0
10 *9:9 *27:9 0
11 *10:9 *27:9 0.0165881
12 *22:9 *27:9 0
13 *26:9 *27:9 0
*RES
1 HADDR[4] *27:5 43.7382 
2 *27:5 *27:7 8 
3 *27:7 *27:9 52.2629 
4 *27:9 *27:11 8 
5 *27:11 *359:HADDR[4] 56.4154 
*END

*D_NET *28 0.0529682
*CONN
*P HADDR[5] I
*I *359:HADDR[5] I *D ahb_counter
*CAP
1 HADDR[5] 0.00224407
2 *359:HADDR[5] 0.00232891
3 *28:11 0.00232891
4 *28:9 0.0124611
5 *28:7 0.0124611
6 *28:5 0.00224407
7 *359:HADDR[5] *359:HWDATA[4] 0
8 *359:HADDR[5] *61:7 0
9 *28:9 *32:9 0
10 *7:9 *28:9 0
11 *9:9 *28:9 0.0189
12 *21:9 *28:9 0
13 *27:9 *28:9 0
*RES
1 HADDR[5] *28:5 50.7811 
2 *28:5 *28:7 8 
3 *28:7 *28:9 52.6064 
4 *28:9 *28:11 8 
5 *28:11 *359:HADDR[5] 49.3725 
*END

*D_NET *29 0.0543876
*CONN
*P HADDR[6] I
*I *359:HADDR[6] I *D ahb_counter
*CAP
1 HADDR[6] 0.00100516
2 *359:HADDR[6] 0.0036399
3 *29:11 0.0036399
4 *29:9 0.0125482
5 *29:7 0.0135534
6 *359:HADDR[6] *359:HWDATA[5] 0
7 *359:HADDR[6] *62:5 0
8 *8:9 *29:9 0.020001
9 *12:9 *29:9 0
10 *14:9 *29:9 0
*RES
1 HADDR[6] *29:7 30.6096 
2 *29:7 *29:9 52.9499 
3 *29:9 *29:11 8 
4 *29:11 *359:HADDR[6] 77.5439 
*END

*D_NET *30 0.0654171
*CONN
*P HADDR[7] I
*I *359:HADDR[7] I *D ahb_counter
*CAP
1 HADDR[7] 0.000321523
2 *359:HADDR[7] 0.00438108
3 *30:11 0.00438108
4 *30:9 0.00940838
5 *30:7 0.0097299
6 *359:HADDR[7] *359:HWDATA[6] 0
7 *359:HADDR[7] *63:7 0
8 *359:HADDR[7] *103:17 0
9 *30:9 *67:23 0.000274309
10 *30:9 *74:29 0.000488914
11 *16:9 *30:9 0
12 *20:9 *30:9 0.0129424
13 *23:9 *30:9 0.0234896
*RES
1 HADDR[7] *30:7 15.1154 
2 *30:7 *30:9 53.2933 
3 *30:9 *30:11 8 
4 *30:11 *359:HADDR[7] 93.0382 
*END

*D_NET *31 0.0661121
*CONN
*P HADDR[8] I
*I *359:HADDR[8] I *D ahb_counter
*CAP
1 HADDR[8] 0.00409658
2 *359:HADDR[8] 0.000329873
3 *31:9 0.00797281
4 *31:7 0.00764294
5 *31:5 0.00409658
6 *359:HADDR[8] *359:HWDATA[7] 0
7 *359:HADDR[8] *64:7 0
8 *31:9 *359:HTRANS[1] 3.90636e-05
9 *31:9 *359:HWDATA[0] 0
10 *31:9 *359:HWDATA[3] 0
11 *31:9 *359:HWDATA[4] 0
12 *31:9 *61:9 0.00265186
13 *1:17 *31:9 0.0196414
14 *2:9 *31:9 0
15 *13:9 *31:9 0.0196411
*RES
1 HADDR[8] *31:5 93.0382 
2 *31:5 *31:7 8 
3 *31:7 *31:9 53.6368 
4 *31:9 *359:HADDR[8] 15.1154 
*END

*D_NET *32 0.0579618
*CONN
*P HADDR[9] I
*I *359:HADDR[9] I *D ahb_counter
*CAP
1 HADDR[9] 0.00258833
2 *359:HADDR[9] 0.00199598
3 *32:11 0.00199598
4 *32:9 0.011885
5 *32:7 0.011885
6 *32:5 0.00258833
7 *359:HADDR[9] *359:HWDATA[8] 0
8 *359:HADDR[9] *65:7 0
9 *32:9 *64:9 0.000689264
10 *6:9 *32:9 0
11 *7:9 *32:9 0.024334
12 *19:9 *32:9 0
13 *28:9 *32:9 0
*RES
1 HADDR[9] *32:5 57.8239 
2 *32:5 *32:7 8 
3 *32:7 *32:9 53.9803 
4 *32:9 *32:11 8 
5 *32:11 *359:HADDR[9] 42.3296 
*END

*D_NET *33 0.0554316
*CONN
*P HCLK I
*I *359:HCLK I *D ahb_counter
*CAP
1 HCLK 0.000229715
2 *359:HCLK 7.90936e-05
3 *33:17 0.00496898
4 *33:15 0.00488988
5 *33:13 0.00973878
6 *33:11 0.00996849
7 *359:HCLK *359:HREADY 0
8 *33:13 *68:13 0.0255566
9 *33:17 *359:HREADY 0
10 *24:7 *33:17 0
*RES
1 HCLK *33:11 13.7689 
2 *33:11 *33:13 48.6565 
3 *33:13 *33:15 8 
4 *33:15 *33:17 102.266 
5 *33:17 *359:HCLK 1.86429 
*END

*D_NET *34 0.0690886
*CONN
*P HRDATA[0] O
*I *359:HRDATA[0] O *D ahb_counter
*CAP
1 HRDATA[0] 0.000883051
2 *359:HRDATA[0] 0.00282045
3 *34:9 0.00844322
4 *34:7 0.00756017
5 *34:5 0.00282045
6 HRDATA[0] *55:5 0.00224484
7 *34:5 *359:HSIZE[0] 0
8 *34:5 *86:5 0.00128485
9 *34:9 *45:9 0
10 *34:9 *47:9 0.00771136
11 *34:9 *66:9 0.0122521
12 *359:HADDR[0] *34:5 0
13 *12:9 *34:9 0.00132635
14 *14:9 *34:9 0.0217418
*RES
1 *359:HRDATA[0] *34:5 71.2054 
2 *34:5 *34:7 8 
3 *34:7 *34:9 55.2683 
4 *34:9 HRDATA[0] 36.9482 
*END

*D_NET *35 0.0655659
*CONN
*P HRDATA[10] O
*I *359:HRDATA[10] O *D ahb_counter
*CAP
1 HRDATA[10] 0.000321523
2 *359:HRDATA[10] 0.00438617
3 *35:9 0.00738962
4 *35:7 0.0070681
5 *35:5 0.00438617
6 *35:5 *359:HWDATA[10] 0
7 *35:5 *76:19 0
8 *35:9 *36:9 0.0253039
9 *35:9 *74:29 0.000465846
10 *35:9 *99:11 0
11 *359:HADDR[10] *35:5 0
12 *16:9 *35:9 0
13 *20:9 *35:9 0.0162446
*RES
1 *359:HRDATA[10] *35:5 93.0382 
2 *35:5 *35:7 8 
3 *35:7 *35:9 48.8283 
4 *35:9 HRDATA[10] 15.1154 
*END

*D_NET *36 0.0554767
*CONN
*P HRDATA[11] O
*I *359:HRDATA[11] O *D ahb_counter
*CAP
1 HRDATA[11] 0.00034938
2 *359:HRDATA[11] 0.00434275
3 *36:9 0.0105107
4 *36:7 0.0101614
5 *36:5 0.00434275
6 *36:5 *359:HWDATA[11] 0
7 *36:9 *40:9 0
8 *36:9 *74:29 0.000465846
9 *359:HADDR[11] *36:5 0
10 *16:9 *36:9 0
11 *35:9 *36:9 0.0253039
*RES
1 *359:HRDATA[11] *36:5 92.3339 
2 *36:5 *36:7 8 
3 *36:7 *36:9 48.4848 
4 *36:9 HRDATA[11] 15.8196 
*END

*D_NET *37 0.0648377
*CONN
*P HRDATA[12] O
*I *359:HRDATA[12] O *D ahb_counter
*CAP
1 HRDATA[12] 0.00418116
2 *359:HRDATA[12] 0.000326448
3 *37:11 0.00418116
4 *37:9 0.00688896
5 *37:7 0.00721541
6 *37:7 *359:HWDATA[12] 0
7 *37:9 *50:9 0.0142681
8 *37:9 *61:9 0.0203333
9 *37:9 *65:9 0
10 *359:HADDR[12] *37:7 0
11 *13:9 *37:9 0.00744327
*RES
1 *359:HRDATA[12] *37:7 15.1154 
2 *37:7 *37:9 48.1413 
3 *37:9 *37:11 8 
4 *37:11 HRDATA[12] 93.0382 
*END

*D_NET *38 0.0664255
*CONN
*P HRDATA[13] O
*I *359:HRDATA[13] O *D ahb_counter
*CAP
1 HRDATA[13] 0.00384995
2 *359:HRDATA[13] 0.000669638
3 *38:11 0.00384995
4 *38:9 0.00618692
5 *38:7 0.00685656
6 *38:7 *359:HWDATA[13] 0
7 *38:9 *50:9 0
8 *38:9 *51:9 0.0140795
9 *38:9 *63:9 0
10 *38:9 *65:9 0.0225077
11 *359:HADDR[13] *38:7 0
12 *15:9 *38:9 0.00842529
*RES
1 *359:HRDATA[13] *38:7 22.1582 
2 *38:7 *38:9 47.7979 
3 *38:9 *38:11 8 
4 *38:11 HRDATA[13] 85.9954 
*END

*D_NET *39 0.0480689
*CONN
*P HRDATA[14] O
*I *359:HRDATA[14] O *D ahb_counter
*CAP
1 HRDATA[14] 0.00166356
2 *359:HRDATA[14] 0.00297636
3 *39:9 0.0134105
4 *39:7 0.011747
5 *39:5 0.00297636
6 *39:5 *359:HWDATA[14] 0
7 *39:9 *45:9 0.0152951
8 *39:9 *49:9 0
9 *359:HADDR[14] *39:5 0
10 *25:9 *39:9 0
*RES
1 *359:HRDATA[14] *39:5 63.4582 
2 *39:5 *39:7 8 
3 *39:7 *39:9 47.4544 
4 *39:9 HRDATA[14] 44.6954 
*END

*D_NET *40 0.0524383
*CONN
*P HRDATA[15] O
*I *359:HRDATA[15] O *D ahb_counter
*CAP
1 HRDATA[15] 0.000627034