*SPEF "ieee 1481-1999"
*DESIGN "user_project_wrapper"
*DATE "16:03:25 Friday February 28, 2025"
*VENDOR "The OpenROAD Project"
*PROGRAM "OpenROAD"
*VERSION "edf00dff99f6c40d67a30c0e22a8191c5d2ed9d6"
*DESIGN_FLOW "NAME_SCOPE LOCAL" "PIN_CAP NONE"
*DIVIDER /
*DELIMITER :
*BUS_DELIMITER []
*T_UNIT 1 NS
*C_UNIT 1 PF
*R_UNIT 1 OHM
*L_UNIT 1 HENRY

*NAME_MAP
*1 HADDR[0]
*2 HADDR[10]
*3 HADDR[11]
*4 HADDR[12]
*5 HADDR[13]
*6 HADDR[14]
*7 HADDR[15]
*8 HADDR[16]
*9 HADDR[17]
*10 HADDR[18]
*11 HADDR[19]
*12 HADDR[1]
*13 HADDR[20]
*14 HADDR[21]
*15 HADDR[22]
*16 HADDR[23]
*17 HADDR[24]
*18 HADDR[25]
*19 HADDR[26]
*20 HADDR[27]
*21 HADDR[28]
*22 HADDR[29]
*23 HADDR[2]
*24 HADDR[30]
*25 HADDR[31]
*26 HADDR[3]
*27 HADDR[4]
*28 HADDR[5]
*29 HADDR[6]
*30 HADDR[7]
*31 HADDR[8]
*32 HADDR[9]
*33 HCLK
*34 HRDATA[0]
*35 HRDATA[10]
*36 HRDATA[11]
*37 HRDATA[12]
*38 HRDATA[13]
*39 HRDATA[14]
*40 HRDATA[15]
*41 HRDATA[16]
*42 HRDATA[17]
*43 HRDATA[18]
*44 HRDATA[19]
*45 HRDATA[1]
*46 HRDATA[20]
*47 HRDATA[21]
*48 HRDATA[22]
*49 HRDATA[23]
*50 HRDATA[24]
*51 HRDATA[25]
*52 HRDATA[26]
*53 HRDATA[27]
*54 HRDATA[28]
*55 HRDATA[29]
*56 HRDATA[2]
*57 HRDATA[30]
*58 HRDATA[31]
*59 HRDATA[3]
*60 HRDATA[4]
*61 HRDATA[5]
*62 HRDATA[6]
*63 HRDATA[7]
*64 HRDATA[8]
*65 HRDATA[9]
*66 HREADY
*67 HREADYOUT
*68 HRESETn
*69 HSEL
*70 HSIZE[0]
*71 HSIZE[1]
*72 HSIZE[2]
*73 HTRANS[0]
*74 HTRANS[1]
*75 HWDATA[0]
*76 HWDATA[10]
*77 HWDATA[11]
*78 HWDATA[12]
*79 HWDATA[13]
*80 HWDATA[14]
*81 HWDATA[15]
*82 HWDATA[16]
*83 HWDATA[17]
*84 HWDATA[18]
*85 HWDATA[19]
*86 HWDATA[1]
*87 HWDATA[20]
*88 HWDATA[21]
*89 HWDATA[22]
*90 HWDATA[23]
*91 HWDATA[24]
*92 HWDATA[25]
*93 HWDATA[26]
*94 HWDATA[27]
*95 HWDATA[28]
*96 HWDATA[29]
*97 HWDATA[2]
*98 HWDATA[30]
*99 HWDATA[31]
*100 HWDATA[3]
*101 HWDATA[4]
*102 HWDATA[5]
*103 HWDATA[6]
*104 HWDATA[7]
*105 HWDATA[8]
*106 HWDATA[9]
*107 HWRITE
*108 adc0
*109 adc1
*110 comp_n
*111 comp_p
*112 dac0
*113 dac1
*114 gpio0_in[0]
*115 gpio0_in[1]
*116 gpio0_in[2]
*117 gpio0_in[3]
*118 gpio0_in[4]
*119 gpio0_in[5]
*120 gpio0_in[6]
*121 gpio0_in[7]
*122 gpio0_oeb[0]
*123 gpio0_oeb[1]
*124 gpio0_oeb[2]
*125 gpio0_oeb[3]
*126 gpio0_oeb[4]
*127 gpio0_oeb[5]
*128 gpio0_oeb[6]
*129 gpio0_oeb[7]
*130 gpio0_out[0]
*131 gpio0_out[1]
*132 gpio0_out[2]
*133 gpio0_out[3]
*134 gpio0_out[4]
*135 gpio0_out[5]
*136 gpio0_out[6]
*137 gpio0_out[7]
*138 gpio1_in[0]
*139 gpio1_in[1]
*140 gpio1_in[2]
*141 gpio1_in[3]
*142 gpio1_in[4]
*143 gpio1_in[5]
*144 gpio1_in[6]
*145 gpio1_in[7]
*146 gpio1_oeb[0]
*147 gpio1_oeb[1]
*148 gpio1_oeb[2]
*149 gpio1_oeb[3]
*150 gpio1_oeb[4]
*151 gpio1_oeb[5]
*152 gpio1_oeb[6]
*153 gpio1_oeb[7]
*154 gpio1_out[0]
*155 gpio1_out[1]
*156 gpio1_out[2]
*157 gpio1_out[3]
*158 gpio1_out[4]
*159 gpio1_out[5]
*160 gpio1_out[6]
*161 gpio1_out[7]
*162 gpio2_in[0]
*163 gpio2_in[1]
*164 gpio2_in[2]
*165 gpio2_in[3]
*166 gpio2_in[4]
*167 gpio2_in[5]
*168 gpio2_in[6]
*169 gpio2_in[7]
*170 gpio2_oeb[0]
*171 gpio2_oeb[1]
*172 gpio2_oeb[2]
*173 gpio2_oeb[3]
*174 gpio2_oeb[4]
*175 gpio2_oeb[5]
*176 gpio2_oeb[6]
*177 gpio2_oeb[7]
*178 gpio2_out[0]
*179 gpio2_out[1]
*180 gpio2_out[2]
*181 gpio2_out[3]
*182 gpio2_out[4]
*183 gpio2_out[5]
*184 gpio2_out[6]
*185 gpio2_out[7]
*186 gpio3_0_analog
*187 gpio3_1_analog
*188 gpio3_2_analog
*189 gpio3_3_analog
*190 gpio3_4_analog
*191 gpio3_5_analog
*192 gpio3_6_analog
*193 gpio3_7_analog
*194 gpio3_in[0]
*195 gpio3_in[1]
*196 gpio3_in[2]
*197 gpio3_in[3]
*198 gpio3_in[4]
*199 gpio3_in[5]
*200 gpio3_in[6]
*201 gpio3_in[7]
*202 gpio3_oeb[0]
*203 gpio3_oeb[1]
*204 gpio3_oeb[2]
*205 gpio3_oeb[3]
*206 gpio3_oeb[4]
*207 gpio3_oeb[5]
*208 gpio3_oeb[6]
*209 gpio3_oeb[7]
*210 gpio3_out[0]
*211 gpio3_out[1]
*212 gpio3_out[2]
*213 gpio3_out[3]
*214 gpio3_out[4]
*215 gpio3_out[5]
*216 gpio3_out[6]
*217 gpio3_out[7]
*218 gpio4_0_analog
*219 gpio4_1_analog
*220 gpio4_2_analog
*221 gpio4_3_analog
*222 gpio4_4_analog
*223 gpio4_5_analog
*224 gpio4_6_analog
*225 gpio4_7_analog
*226 gpio4_in[0]
*227 gpio4_in[1]
*228 gpio4_in[2]
*229 gpio4_in[3]
*230 gpio4_in[4]
*231 gpio4_in[5]
*232 gpio4_in[6]
*233 gpio4_in[7]
*234 gpio4_oeb[0]
*235 gpio4_oeb[1]
*236 gpio4_oeb[2]
*237 gpio4_oeb[3]
*238 gpio4_oeb[4]
*239 gpio4_oeb[5]
*240 gpio4_oeb[6]
*241 gpio4_oeb[7]
*242 gpio4_out[0]
*243 gpio4_out[1]
*244 gpio4_out[2]
*245 gpio4_out[3]
*246 gpio4_out[4]
*247 gpio4_out[5]
*248 gpio4_out[6]
*249 gpio4_out[7]
*250 gpio5_in[0]
*251 gpio5_in[1]
*252 gpio5_in[2]
*253 gpio5_in[3]
*254 gpio5_in[4]
*255 gpio5_in[5]
*256 gpio5_in[6]
*257 gpio5_in[7]
*258 gpio5_oeb[0]
*259 gpio5_oeb[1]
*260 gpio5_oeb[2]
*261 gpio5_oeb[3]
*262 gpio5_oeb[4]
*263 gpio5_oeb[5]
*264 gpio5_oeb[6]
*265 gpio5_oeb[7]
*266 gpio5_out[0]
*267 gpio5_out[1]
*268 gpio5_out[2]
*269 gpio5_out[3]
*270 gpio5_out[4]
*271 gpio5_out[5]
*272 gpio5_out[6]
*273 gpio5_out[7]
*274 gpio6_in[0]
*275 gpio6_in[1]
*276 gpio6_in[2]
*277 gpio6_in[3]
*278 gpio6_in[4]
*279 gpio6_in[5]
*280 gpio6_in[6]
*281 gpio6_in[7]
*282 gpio6_oeb[0]
*283 gpio6_oeb[1]
*284 gpio6_oeb[2]
*285 gpio6_oeb[3]
*286 gpio6_oeb[4]
*287 gpio6_oeb[5]
*288 gpio6_oeb[6]
*289 gpio6_oeb[7]
*290 gpio6_out[0]
*291 gpio6_out[1]
*292 gpio6_out[2]
*293 gpio6_out[3]
*294 gpio6_out[4]
*295 gpio6_out[5]
*296 gpio6_out[6]
*297 gpio6_out[7]
*298 gpio7_in[0]
*299 gpio7_in[1]
*300 gpio7_in[2]
*301 gpio7_in[3]
*302 gpio7_in[4]
*303 gpio7_in[5]
*304 gpio7_in[6]
*305 gpio7_in[7]
*306 gpio7_oeb[0]
*307 gpio7_oeb[1]
*308 gpio7_oeb[2]
*309 gpio7_oeb[3]
*310 gpio7_oeb[4]
*311 gpio7_oeb[5]
*312 gpio7_oeb[6]
*313 gpio7_oeb[7]
*314 gpio7_out[0]
*315 gpio7_out[1]
*316 gpio7_out[2]
*317 gpio7_out[3]
*318 gpio7_out[4]
*319 gpio7_out[5]
*320 gpio7_out[6]
*321 gpio7_out[7]
*322 ibias100
*323 ibias50
*324 left_vref
*325 right_vref
*326 sio_in[0]
*327 sio_in[1]
*328 sio_oeb[0]
*329 sio_oeb[1]
*330 sio_out[0]
*331 sio_out[1]
*332 tempsense
*333 ulpcomp_n
*334 ulpcomp_p
*335 user_irq[0]
*336 user_irq[10]
*337 user_irq[11]
*338 user_irq[12]
*339 user_irq[13]
*340 user_irq[14]
*341 user_irq[15]
*342 user_irq[1]
*343 user_irq[2]
*344 user_irq[3]
*345 user_irq[4]
*346 user_irq[5]
*347 user_irq[6]
*348 user_irq[7]
*349 user_irq[8]
*350 user_irq[9]
*351 vbgsc
*352 vbgtc
*357 vinref
*358 voutref
*359 frigate_prj

*PORTS
HADDR[0] I
HADDR[10] I
HADDR[11] I
HADDR[12] I
HADDR[13] I
HADDR[14] I
HADDR[15] I
HADDR[16] I
HADDR[17] I
HADDR[18] I
HADDR[19] I
HADDR[1] I
HADDR[20] I
HADDR[21] I
HADDR[22] I
HADDR[23] I
HADDR[24] I
HADDR[25] I
HADDR[26] I
HADDR[27] I
HADDR[28] I
HADDR[29] I
HADDR[2] I
HADDR[30] I
HADDR[31] I
HADDR[3] I
HADDR[4] I
HADDR[5] I
HADDR[6] I
HADDR[7] I
HADDR[8] I
HADDR[9] I
HCLK I
HRDATA[0] O
HRDATA[10] O
HRDATA[11] O
HRDATA[12] O
HRDATA[13] O
HRDATA[14] O
HRDATA[15] O
HRDATA[16] O
HRDATA[17] O
HRDATA[18] O
HRDATA[19] O
HRDATA[1] O
HRDATA[20] O
HRDATA[21] O
HRDATA[22] O
HRDATA[23] O
HRDATA[24] O
HRDATA[25] O
HRDATA[26] O
HRDATA[27] O
HRDATA[28] O
HRDATA[29] O
HRDATA[2] O
HRDATA[30] O
HRDATA[31] O
HRDATA[3] O
HRDATA[4] O
HRDATA[5] O
HRDATA[6] O
HRDATA[7] O
HRDATA[8] O
HRDATA[9] O
HREADY I
HREADYOUT O
HRESETn I
HSEL I
HSIZE[0] I
HSIZE[1] I
HSIZE[2] I
HTRANS[0] I
HTRANS[1] I
HWDATA[0] I
HWDATA[10] I
HWDATA[11] I
HWDATA[12] I
HWDATA[13] I
HWDATA[14] I
HWDATA[15] I
HWDATA[16] I
HWDATA[17] I
HWDATA[18] I
HWDATA[19] I
HWDATA[1] I
HWDATA[20] I
HWDATA[21] I
HWDATA[22] I
HWDATA[23] I
HWDATA[24] I
HWDATA[25] I
HWDATA[26] I
HWDATA[27] I
HWDATA[28] I
HWDATA[29] I
HWDATA[2] I
HWDATA[30] I
HWDATA[31] I
HWDATA[3] I
HWDATA[4] I
HWDATA[5] I
HWDATA[6] I
HWDATA[7] I
HWDATA[8] I
HWDATA[9] I
HWRITE I
adc0 I
adc1 I
comp_n I
comp_p I
dac0 I
dac1 I
gpio0_in[0] I
gpio0_in[1] I
gpio0_in[2] I
gpio0_in[3] I
gpio0_in[4] I
gpio0_in[5] I
gpio0_in[6] I
gpio0_in[7] I
gpio0_oeb[0] O
gpio0_oeb[1] O
gpio0_oeb[2] O
gpio0_oeb[3] O
gpio0_oeb[4] O
gpio0_oeb[5] O
gpio0_oeb[6] O
gpio0_oeb[7] O
gpio0_out[0] O
gpio0_out[1] O
gpio0_out[2] O
gpio0_out[3] O
gpio0_out[4] O
gpio0_out[5] O
gpio0_out[6] O
gpio0_out[7] O
gpio1_in[0] I
gpio1_in[1] I
gpio1_in[2] I
gpio1_in[3] I
gpio1_in[4] I
gpio1_in[5] I
gpio1_in[6] I
gpio1_in[7] I
gpio1_oeb[0] O
gpio1_oeb[1] O
gpio1_oeb[2] O
gpio1_oeb[3] O
gpio1_oeb[4] O
gpio1_oeb[5] O
gpio1_oeb[6] O
gpio1_oeb[7] O
gpio1_out[0] O
gpio1_out[1] O
gpio1_out[2] O
gpio1_out[3] O
gpio1_out[4] O
gpio1_out[5] O
gpio1_out[6] O
gpio1_out[7] O
gpio2_in[0] I
gpio2_in[1] I
gpio2_in[2] I
gpio2_in[3] I
gpio2_in[4] I
gpio2_in[5] I
gpio2_in[6] I
gpio2_in[7] I
gpio2_oeb[0] O
gpio2_oeb[1] O
gpio2_oeb[2] O
gpio2_oeb[3] O
gpio2_oeb[4] O
gpio2_oeb[5] O
gpio2_oeb[6] O
gpio2_oeb[7] O
gpio2_out[0] O
gpio2_out[1] O
gpio2_out[2] O
gpio2_out[3] O
gpio2_out[4] O
gpio2_out[5] O
gpio2_out[6] O
gpio2_out[7] O
gpio3_0_analog I
gpio3_1_analog I
gpio3_2_analog I
gpio3_3_analog I
gpio3_4_analog I
gpio3_5_analog I
gpio3_6_analog I
gpio3_7_analog I
gpio3_in[0] I
gpio3_in[1] I
gpio3_in[2] I
gpio3_in[3] I
gpio3_in[4] I
gpio3_in[5] I
gpio3_in[6] I
gpio3_in[7] I
gpio3_oeb[0] O
gpio3_oeb[1] O
gpio3_oeb[2] O
gpio3_oeb[3] O
gpio3_oeb[4] O
gpio3_oeb[5] O
gpio3_oeb[6] O
gpio3_oeb[7] O
gpio3_out[0] O
gpio3_out[1] O
gpio3_out[2] O
gpio3_out[3] O
gpio3_out[4] O
gpio3_out[5] O
gpio3_out[6] O
gpio3_out[7] O
gpio4_0_analog I
gpio4_1_analog I
gpio4_2_analog I
gpio4_3_analog I
gpio4_4_analog I
gpio4_5_analog I
gpio4_6_analog I
gpio4_7_analog I
gpio4_in[0] I
gpio4_in[1] I
gpio4_in[2] I
gpio4_in[3] I
gpio4_in[4] I
gpio4_in[5] I
gpio4_in[6] I
gpio4_in[7] I
gpio4_oeb[0] O
gpio4_oeb[1] O
gpio4_oeb[2] O
gpio4_oeb[3] O
gpio4_oeb[4] O
gpio4_oeb[5] O
gpio4_oeb[6] O
gpio4_oeb[7] O
gpio4_out[0] O
gpio4_out[1] O
gpio4_out[2] O
gpio4_out[3] O
gpio4_out[4] O
gpio4_out[5] O
gpio4_out[6] O
gpio4_out[7] O
gpio5_in[0] I
gpio5_in[1] I
gpio5_in[2] I
gpio5_in[3] I
gpio5_in[4] I
gpio5_in[5] I
gpio5_in[6] I
gpio5_in[7] I
gpio5_oeb[0] O
gpio5_oeb[1] O
gpio5_oeb[2] O
gpio5_oeb[3] O
gpio5_oeb[4] O
gpio5_oeb[5] O
gpio5_oeb[6] O
gpio5_oeb[7] O
gpio5_out[0] O
gpio5_out[1] O
gpio5_out[2] O
gpio5_out[3] O
gpio5_out[4] O
gpio5_out[5] O
gpio5_out[6] O
gpio5_out[7] O
gpio6_in[0] I
gpio6_in[1] I
gpio6_in[2] I
gpio6_in[3] I
gpio6_in[4] I
gpio6_in[5] I
gpio6_in[6] I
gpio6_in[7] I
gpio6_oeb[0] O
gpio6_oeb[1] O
gpio6_oeb[2] O
gpio6_oeb[3] O
gpio6_oeb[4] O
gpio6_oeb[5] O
gpio6_oeb[6] O
gpio6_oeb[7] O
gpio6_out[0] O
gpio6_out[1] O
gpio6_out[2] O
gpio6_out[3] O
gpio6_out[4] O
gpio6_out[5] O
gpio6_out[6] O
gpio6_out[7] O
gpio7_in[0] I
gpio7_in[1] I
gpio7_in[2] I
gpio7_in[3] I
gpio7_in[4] I
gpio7_in[5] I
gpio7_in[6] I
gpio7_in[7] I
gpio7_oeb[0] O
gpio7_oeb[1] O
gpio7_oeb[2] O
gpio7_oeb[3] O
gpio7_oeb[4] O
gpio7_oeb[5] O
gpio7_oeb[6] O
gpio7_oeb[7] O
gpio7_out[0] O
gpio7_out[1] O
gpio7_out[2] O
gpio7_out[3] O
gpio7_out[4] O
gpio7_out[5] O
gpio7_out[6] O
gpio7_out[7] O
ibias100 I
ibias50 I
left_vref I
right_vref I
sio_in[0] I
sio_in[1] I
sio_oeb[0] O
sio_oeb[1] O
sio_out[0] O
sio_out[1] O
tempsense I
ulpcomp_n I
ulpcomp_p I
user_irq[0] O
user_irq[10] O
user_irq[11] O
user_irq[12] O
user_irq[13] O
user_irq[14] O
user_irq[15] O
user_irq[1] O
user_irq[2] O
user_irq[3] O
user_irq[4] O
user_irq[5] O
user_irq[6] O
user_irq[7] O
user_irq[8] O
user_irq[9] O
vbgsc I
vbgtc I
vinref I
voutref I

*D_NET *1 0.0433015
*CONN
*P HADDR[0] I
*I *359:HADDR[0] I *D ahb_counter
*CAP
1 HADDR[0] 0.000564205
2 *359:HADDR[0] 0.00868824
3 *1:13 0.0119092
4 *1:11 0.00378519
5 *359:HADDR[0] *359:HADDR[8] 0.0166016
6 *359:HADDR[0] *359:HWDATA[0] 0
7 *359:HADDR[0] *359:HWRITE 0
8 *359:HADDR[0] *34:5 0
9 *359:HADDR[0] *67:29 1.00909e-05
10 *1:11 *69:15 0
11 *1:13 *12:7 0.00174288
*RES
1 HADDR[0] *1:11 4.06277 
2 *1:11 *1:13 65.895 
3 *1:13 *359:HADDR[0] 37.2028 
*END

*D_NET *2 0.0489573
*CONN
*P HADDR[10] I
*I *359:HADDR[10] I *D ahb_counter
*CAP
1 HADDR[10] 0.00347182
2 *359:HADDR[10] 0.0107532
3 *2:5 0.014225
4 *359:HADDR[10] *359:HADDR[20] 0
5 *359:HADDR[10] *359:HADDR[8] 0
6 *359:HADDR[10] *359:HWDATA[2] 0
7 *359:HADDR[10] *359:HWDATA[5] 0.00321796
8 *359:HADDR[10] *359:HWDATA[9] 0
9 *359:HADDR[10] *3:11 0
10 *359:HADDR[10] *15:11 0.0167267
11 *359:HADDR[10] *35:5 0
12 *359:HADDR[10] *65:11 0.000562741
*RES
1 HADDR[10] *2:5 62.2725 
2 *2:5 *359:HADDR[10] 48.115 
*END

*D_NET *3 0.0503481
*CONN
*P HADDR[11] I
*I *359:HADDR[11] I *D ahb_counter
*CAP
1 HADDR[11] 0.00319383
2 *359:HADDR[11] 0.000879683
3 *3:11 0.0115021
4 *3:5 0.0138163
5 *359:HADDR[11] *359:HWDATA[10] 0
6 *359:HADDR[11] *36:5 0
7 *3:11 *359:HWDATA[1] 0.00225448
8 *3:11 *5:11 0
9 *3:11 *15:11 0
10 *3:11 *17:11 0.01576
11 *3:11 *63:11 0.00294179
12 *359:HADDR[10] *3:11 0
*RES
1 HADDR[11] *3:5 57.1725 
2 *3:5 *3:11 38.0956 
3 *3:11 *359:HADDR[11] 15.3525 
*END

*D_NET *4 0.0525381
*CONN
*P HADDR[12] I
*I *359:HADDR[12] I *D ahb_counter
*CAP
1 HADDR[12] 0.00966337
2 *359:HADDR[12] 0.00360381
3 *4:11 0.0132672
4 *359:HADDR[12] *359:HWDATA[11] 0
5 *359:HADDR[12] *37:11 0
6 *4:11 HRDATA[2] 0.00826498
7 *4:11 *16:11 0.0177387
8 *4:11 *23:11 0
9 *4:11 *24:11 0
*RES
1 HADDR[12] *4:11 48.5812 
2 *4:11 *359:HADDR[12] 62.2725 
*END

*D_NET *5 0.0519983
*CONN
*P HADDR[13] I
*I *359:HADDR[13] I *D ahb_counter
*CAP
1 HADDR[13] 0.00292011
2 *359:HADDR[13] 0.00119059
3 *5:11 0.0105145
4 *5:5 0.012244
5 *359:HADDR[13] *359:HWDATA[12] 0
6 *359:HADDR[13] *38:11 0
7 *5:11 *17:11 0
8 *5:11 *18:11 0.0171958
9 *5:11 *59:11 0.00793328
10 *3:11 *5:11 0
*RES
1 HADDR[13] *5:5 52.0725 
2 *5:5 *5:11 38.5617 
3 *5:11 *359:HADDR[13] 20.4525 
*END

*D_NET *6 0.0530282
*CONN
*P HADDR[14] I
*I *359:HADDR[14] I *D ahb_counter
*CAP
1 HADDR[14] 0.00261256
2 *359:HADDR[14] 0.00150698
3 *6:11 0.0116109
4 *6:7 0.0127165
5 *359:HADDR[14] *359:HWDATA[13] 0
6 *359:HADDR[14] *39:7 0
7 *6:11 *18:11 0
8 *6:11 *19:11 0.0168526
9 *6:11 *32:11 0
10 *6:11 *60:11 0.0077286
*RES
1 HADDR[14] *6:7 46.9625 
2 *6:7 *6:11 38.2948 
3 *6:11 *359:HADDR[14] 26.0625 
*END

*D_NET *7 0.0608783
*CONN
*P HADDR[15] I
*I *359:HADDR[15] I *D ahb_counter
*CAP
1 HADDR[15] 0.00232737
2 *359:HADDR[15] 0.0018257
3 *7:11 0.00799446
4 *7:7 0.00849613
5 *359:HADDR[15] *359:HWDATA[14] 0
6 *359:HADDR[15] *40:5 0
7 *7:11 *21:11 0.0168378
8 *7:11 *28:11 0
9 *7:11 *32:11 0.0205825
10 *7:11 *64:11 0.00281426
*RES
1 HADDR[15] *7:7 41.8625 
2 *7:7 *7:11 38.5279 
3 *7:11 *359:HADDR[15] 31.1625 
*END

*D_NET *8 0.0585958
*CONN
*P HADDR[16] I
*I *359:HADDR[16] I *D ahb_counter
*CAP
1 HADDR[16] 0.000925008
2 *359:HADDR[16] 0.00327502
3 *8:11 0.0119603
4 *8:7 0.00961025
5 *359:HADDR[16] *359:HWDATA[15] 0
6 *359:HADDR[16] *41:5 0
7 *8:11 *14:11 0
8 *8:11 *24:11 0.0158813
9 *8:11 *29:11 0.016944
*RES
1 HADDR[16] *8:7 16.3625 
2 *8:7 *8:11 38.7609 
3 *8:11 *359:HADDR[16] 56.6625 
*END

*D_NET *9 0.0634795
*CONN
*P HADDR[17] I
*I *359:HADDR[17] I *D ahb_counter
*CAP
1 HADDR[17] 0.00204683
2 *359:HADDR[17] 0.00212363
3 *9:11 0.00841852
4 *9:7 0.00834173
5 *359:HADDR[17] *359:HWDATA[16] 0
6 *359:HADDR[17] *42:11 0
7 *9:11 *21:11 0
8 *9:11 *22:11 0.0177952
9 *9:11 *27:11 0
10 *9:11 *28:11 0.0159853
11 *9:11 *62:11 0.00876832
*RES
1 HADDR[17] *9:7 36.7625 
2 *9:7 *9:11 38.994 
3 *9:11 *359:HADDR[17] 36.2625 
*END

*D_NET *10 0.0575284
*CONN
*P HADDR[18] I
*I *359:HADDR[18] I *D ahb_counter
*CAP
1 HADDR[18] 0.00176055
2 *359:HADDR[18] 0.00238562
3 *10:11 0.0115692
4 *10:7 0.0109441
5 *359:HADDR[18] *359:HWDATA[17] 0
6 *359:HADDR[18] *43:7 0
7 *10:11 *22:11 0
8 *10:11 *25:11 0.0168154
9 *10:11 *26:11 0
10 *10:11 *27:11 0.0140536
*RES
1 HADDR[18] *10:7 31.6625 
2 *10:7 *10:11 39.2271 
3 *10:11 *359:HADDR[18] 41.3625 
*END

*D_NET *11 0.050192
*CONN
*P HADDR[19] I
*I *359:HADDR[19] I *D ahb_counter
*CAP
1 HADDR[19] 0.00144727
2 *359:HADDR[19] 0.00275856
3 *11:11 0.0128865
4 *11:7 0.0115752
5 *359:HADDR[19] *359:HWDATA[18] 0
6 *359:HADDR[19] *44:7 0
7 *11:11 *12:11 0
8 *11:11 *26:11 0.006167
9 *11:11 *45:11 0.0153575
10 *11:11 *66:11 0
*RES
1 HADDR[19] *11:7 26.0525 
2 *11:7 *11:11 39.4601 
3 *11:11 *359:HADDR[19] 46.9725 
*END

*D_NET *12 0.0399878
*CONN
*P HADDR[1] I
*I *359:HADDR[1] I *D ahb_counter
*CAP
1 HADDR[1] 0.00078571
2 *359:HADDR[1] 0.00234527
3 *12:11 0.0132734
4 *12:7 0.0117138
5 *359:HADDR[1] *359:HWDATA[0] 0
6 *359:HADDR[1] *45:7 0
7 *359:HADDR[1] *100:5 0.00163366
8 *12:11 *14:11 0.00462941
9 *12:11 *26:11 0
10 *12:11 *29:11 0
11 *12:11 *34:11 0.00112137
12 *12:11 *66:11 0.00274227
13 *1:13 *12:7 0.00174288
14 *11:11 *12:11 0
*RES
1 HADDR[1] *12:7 21.9725 
2 *12:7 *12:11 34.0413 
3 *12:11 *359:HADDR[1] 51.0525 
*END

*D_NET *13 0.053326
*CONN
*P HADDR[20] I
*I *359:HADDR[20] I *D ahb_counter
*CAP
1 HADDR[20] 0.00379081
2 *359:HADDR[20] 0.00957367
3 *13:5 0.0133645
4 *359:HADDR[20] *359:HADDR[8] 0.0165931
5 *359:HADDR[20] *359:HWDATA[19] 0
6 *359:HADDR[20] *359:HWDATA[2] 0.00163005
7 *359:HADDR[20] *359:HWDATA[5] 0
8 *359:HADDR[20] *37:11 0.00629691
9 *359:HADDR[20] *46:7 0
10 *359:HADDR[20] *61:11 0.00207699
11 *359:HADDR[20] *65:11 0
12 *359:HADDR[10] *359:HADDR[20] 0
*RES
1 HADDR[20] *13:5 66.8625 
2 *13:5 *359:HADDR[20] 45.8557 
*END

*D_NET *14 0.0525951
*CONN
*P HADDR[21] I
*I *359:HADDR[21] I *D ahb_counter
*CAP
1 HADDR[21] 0.00119789
2 *359:HADDR[21] 0.00301903
3 *14:11 0.0135921
4 *14:7 0.0117709
5 *359:HADDR[21] *359:HWDATA[20] 0
6 *359:HADDR[21] *47:5 0
7 *14:11 HRDATA[16] 0
8 *14:11 *29:11 0
9 *14:11 *34:11 0.0183858
10 *8:11 *14:11 0
11 *12:11 *14:11 0.00462941
*RES
1 HADDR[21] *14:7 20.9525 
2 *14:7 *14:11 39.9263 
3 *14:11 *359:HADDR[21] 52.0725 
*END

*D_NET *15 0.0548285
*CONN
*P HADDR[22] I
*I *359:HADDR[22] I *D ahb_counter
*CAP
1 HADDR[22] 0.0035099
2 *359:HADDR[22] 0.000622603
3 *15:11 0.0111959
4 *15:5 0.0140832
5 *359:HADDR[22] *359:HWDATA[21] 0
6 *359:HADDR[22] *48:7 0
7 *15:11 *359:HWDATA[1] 0
8 *15:11 *38:11 0.0071262
9 *15:11 *63:11 0
10 *15:11 *65:11 0.00156413
11 *359:HADDR[10] *15:11 0.0167267
12 *3:11 *15:11 0
*RES
1 HADDR[22] *15:5 61.7625 
2 *15:5 *15:11 40.6593 
3 *15:11 *359:HADDR[22] 10.7625 
*END

*D_NET *16 0.054008
*CONN
*P HADDR[23] I
*I *359:HADDR[23] I *D ahb_counter
*CAP
1 HADDR[23] 0.000553477
2 *359:HADDR[23] 0.00363841
3 *16:11 0.0136357
4 *16:7 0.0105507
5 *359:HADDR[23] *359:HWDATA[22] 0
6 *359:HADDR[23] *49:7 0
7 *16:11 HRDATA[10] 0
8 *16:11 HRDATA[11] 0
9 *16:11 HRDATA[15] 0.00634315
10 *16:11 HRDATA[2] 0.00154789
11 *16:11 *20:11 0
12 *16:11 *23:11 0
13 *16:11 *30:11 0
14 *4:11 *16:11 0.0177387
*RES
1 HADDR[23] *16:7 10.2425 
2 *16:7 *16:11 40.3924 
3 *16:11 *359:HADDR[23] 62.7825 
*END

*D_NET *17 0.0537227
*CONN
*P HADDR[24] I
*I *359:HADDR[24] I *D ahb_counter
*CAP
1 HADDR[24] 0.00323191
2 *359:HADDR[24] 0.00094073
3 *17:11 0.0117268
4 *17:5 0.014018
5 *359:HADDR[24] *359:HWDATA[23] 0
6 *359:HADDR[24] *50:11 0
7 *17:11 *42:11 0.00533316
8 *17:11 *59:11 0
9 *17:11 *63:11 0.00271216
10 *3:11 *17:11 0.01576
11 *5:11 *17:11 0
*RES
1 HADDR[24] *17:5 56.6625 
2 *17:5 *17:11 41.1255 
3 *17:11 *359:HADDR[24] 15.8625 
*END

*D_NET *18 0.0552148
*CONN
*P HADDR[25] I
*I *359:HADDR[25] I *D ahb_counter
*CAP
1 HADDR[25] 0.0029449
2 *359:HADDR[25] 0.00121387
3 *18:11 0.0120823
4 *18:5 0.0138134
5 *359:HADDR[25] *359:HWDATA[24] 0
6 *359:HADDR[25] *51:11 0
7 *18:11 *43:11 0.00548147
8 *18:11 *59:11 0.0024831
9 *18:11 *60:11 0
10 *5:11 *18:11 0.0171958
11 *6:11 *18:11 0
*RES
1 HADDR[25] *18:5 51.5625 
2 *18:5 *18:11 41.3585 
3 *18:11 *359:HADDR[25] 20.9625 
*END

*D_NET *19 0.054666
*CONN
*P HADDR[26] I
*I *359:HADDR[26] I *D ahb_counter
*CAP
1 HADDR[26] 0.00263088
2 *359:HADDR[26] 0.0015634
3 *19:11 0.0124686
4 *19:7 0.013536
5 *359:HADDR[26] *359:HWDATA[25] 0
6 *359:HADDR[26] *52:11 0
7 *19:11 *32:11 0
8 *19:11 *44:11 0.00534039
9 *19:11 *60:11 0.00227409
10 *19:11 *64:11 0
11 *6:11 *19:11 0.0168526
*RES
1 HADDR[26] *19:7 46.4525 
2 *19:7 *19:11 41.0916 
3 *19:11 *359:HADDR[26] 26.5725 
*END

*D_NET *20 0.0559511
*CONN
*P HADDR[27] I
*I *359:HADDR[27] I *D ahb_counter
*CAP
1 HADDR[27] 0.00996187
2 *359:HADDR[27] 0.00393227
3 *20:11 0.0138941
4 *359:HADDR[27] *359:HWDATA[26] 0
5 *359:HADDR[27] *53:5 0
6 *20:11 HRDATA[10] 0.0137371
7 *20:11 *359:HTRANS[1] 0.000949489
8 *20:11 *30:11 0.0109504
9 *20:11 *67:29 0.0001465
10 *20:11 *70:23 0.000464031
11 *20:11 *72:27 0.000246076
12 *20:11 *79:11 0.0010289
13 *20:11 *85:15 0.000640247
14 *20:11 *89:19 0
15 *20:11 *91:15 0
16 *20:11 *99:11 0
17 *20:11 *107:23 0
18 *16:11 *20:11 0
*RES
1 HADDR[27] *20:11 46.4672 
2 *20:11 *359:HADDR[27] 67.8825 
*END

*D_NET *21 0.0548578
*CONN
*P HADDR[28] I
*I *359:HADDR[28] I *D ahb_counter
*CAP
1 HADDR[28] 0.00241676
2 *359:HADDR[28] 0.00188228
3 *21:11 0.0125388
4 *21:7 0.0130733
5 *359:HADDR[28] *359:HWDATA[27] 0
6 *359:HADDR[28] *54:5 0
7 *359:HADDR[28] *94:17 0
8 *21:11 *28:11 0
9 *21:11 *46:11 0.00629437
10 *21:11 *62:11 0
11 *21:11 *64:11 0.00181461
12 *7:11 *21:11 0.0168378
13 *9:11 *21:11 0
*RES
1 HADDR[28] *21:7 41.3525 
2 *21:7 *21:11 41.5577 
3 *21:11 *359:HADDR[28] 31.6725 
*END

*D_NET *22 0.0563691
*CONN
*P HADDR[29] I
*I *359:HADDR[29] I *D ahb_counter
*CAP
1 HADDR[29] 0.00205147
2 *359:HADDR[29] 0.00213393
3 *22:11 0.0132384
4 *22:7 0.013156
5 *359:HADDR[29] *359:HWDATA[28] 0
6 *359:HADDR[29] *55:5 0
7 *22:11 *25:11 0
8 *22:11 *27:11 0
9 *22:11 *48:11 0.00547383
10 *22:11 *49:11 0
11 *22:11 *62:11 0.00252028
12 *9:11 *22:11 0.0177952
13 *10:11 *22:11 0
*RES
1 HADDR[29] *22:7 36.2525 
2 *22:7 *22:11 41.7908 
3 *22:11 *359:HADDR[29] 36.7725 
*END

*D_NET *23 0.0479026
*CONN
*P HADDR[2] I
*I *359:HADDR[2] I *D ahb_counter
*CAP
1 HADDR[2] 0.00962528
2 *359:HADDR[2] 0.00289323
3 *23:11 0.0125185
4 *359:HADDR[2] *359:HWDATA[1] 0
5 *359:HADDR[2] *56:5 0
6 *359:HADDR[2] *102:5 0.00284782
7 *23:11 *30:11 0.0198713
8 *23:11 *67:29 0.0001465
9 *4:11 *23:11 0
10 *16:11 *23:11 0
*RES
1 HADDR[2] *23:11 41.2526 
2 *23:11 *359:HADDR[2] 66.8625 
*END

*D_NET *24 0.0571192
*CONN
*P HADDR[30] I
*I *359:HADDR[30] I *D ahb_counter
*CAP
1 HADDR[30] 0.000906818
2 *359:HADDR[30] 0.00310033
3 *24:11 0.0139838
4 *24:7 0.0117903
5 *359:HADDR[30] HRDATA[1] 0.000546114
6 *359:HADDR[30] *359:HWDATA[29] 0
7 *359:HADDR[30] *57:5 0
8 *24:7 *33:17 0
9 *24:11 HRDATA[16] 0.0109106
10 *24:11 HRDATA[2] 0
11 *4:11 *24:11 0
12 *8:11 *24:11 0.0158813
*RES
1 HADDR[30] *24:7 15.8525 
2 *24:7 *24:11 42.0239 
3 *24:11 *359:HADDR[30] 57.1725 
*END

*D_NET *25 0.0549912
*CONN
*P HADDR[31] I
*I *359:HADDR[31] I *D ahb_counter
*CAP
1 HADDR[31] 0.00176996
2 *359:HADDR[31] 0.00242021
3 *25:11 0.0142539
4 *25:7 0.0136037
5 *359:HADDR[31] *359:HWDATA[30] 0
6 *359:HADDR[31] *58:5 0
7 *25:7 *359:HREADY 0
8 *25:7 *359:HRESETn 0
9 *25:11 *26:11 0
10 *25:11 *39:11 0
11 *25:11 *45:11 0
12 *25:11 *49:11 0.006128
13 *10:11 *25:11 0.0168154
14 *22:11 *25:11 0
*RES
1 HADDR[31] *25:7 31.1525 
2 *25:7 *25:11 42.2569 
3 *25:11 *359:HADDR[31] 41.8725 
*END

*D_NET *26 0.0394075
*CONN
*P HADDR[3] I
*I *359:HADDR[3] I *D ahb_counter
*CAP
1 HADDR[3] 0.00147683
2 *359:HADDR[3] 0.00267095
3 *26:11 0.0140269
4 *26:7 0.0128328
5 *359:HADDR[3] *359:HWDATA[2] 0
6 *359:HADDR[3] *59:7 0
7 *26:11 *27:11 0
8 *26:11 *45:11 0.0022331
9 *10:11 *26:11 0
10 *11:11 *26:11 0.006167
11 *12:11 *26:11 0
12 *25:11 *26:11 0
*RES
1 HADDR[3] *26:7 27.0725 
2 *26:7 *26:11 35.7311 
3 *26:11 *359:HADDR[3] 45.9525 
*END

*D_NET *27 0.045233
*CONN
*P HADDR[4] I
*I *359:HADDR[4] I *D ahb_counter
*CAP
1 HADDR[4] 0.00176166
2 *359:HADDR[4] 0.00237245
3 *27:11 0.013828
4 *27:7 0.0132172
5 *359:HADDR[4] *359:HWDATA[3] 0
6 *359:HADDR[4] *60:7 0
7 *27:11 *28:11 0
8 *9:11 *27:11 0
9 *10:11 *27:11 0.0140536
10 *22:11 *27:11 0
11 *26:11 *27:11 0
*RES
1 HADDR[4] *27:7 32.1725 
2 *27:7 *27:11 35.9641 
3 *27:11 *359:HADDR[4] 40.8525 
*END

*D_NET *28 0.0455021
*CONN
*P HADDR[5] I
*I *359:HADDR[5] I *D ahb_counter
*CAP
1 HADDR[5] 0.00204831
2 *359:HADDR[5] 0.00207322
3 *28:11 0.0127101
4 *28:7 0.0126852
5 *359:HADDR[5] *359:HWDATA[4] 0
6 *359:HADDR[5] *61:11 0
7 *28:11 *32:11 0
8 *7:11 *28:11 0
9 *9:11 *28:11 0.0159853
10 *21:11 *28:11 0
11 *27:11 *28:11 0
*RES
1 HADDR[5] *28:7 37.2725 
2 *28:7 *28:11 36.1972 
3 *28:11 *359:HADDR[5] 35.7525 
*END

*D_NET *29 0.0476183
*CONN
*P HADDR[6] I
*I *359:HADDR[6] I *D ahb_counter
*CAP
1 HADDR[6] 0.000911459
2 *359:HADDR[6] 0.00325135
3 *29:11 0.0144257
4 *29:7 0.0120858
5 *359:HADDR[6] *359:HWDATA[5] 0
6 *359:HADDR[6] *62:7 0
7 *8:11 *29:11 0.016944
8 *12:11 *29:11 0
9 *14:11 *29:11 0
*RES
1 HADDR[6] *29:7 16.8725 
2 *29:7 *29:11 36.4303 
3 *29:11 *359:HADDR[6] 56.1525 
*END

*D_NET *30 0.0550503
*CONN
*P HADDR[7] I
*I *359:HADDR[7] I *D ahb_counter
*CAP
1 HADDR[7] 0.00792165
2 *359:HADDR[7] 0.00390418
3 *30:11 0.0118258
4 *359:HADDR[7] *359:HWDATA[6] 0
5 *359:HADDR[7] *63:11 0
6 *359:HADDR[7] *103:17 0
7 *30:11 *359:HTRANS[1] 0.000430353
8 *30:11 *67:29 0.0001465
9 *16:11 *30:11 0
10 *20:11 *30:11 0.0109504
11 *23:11 *30:11 0.0198713
*RES
1 HADDR[7] *30:11 42.3158 
2 *30:11 *359:HADDR[7] 67.3725 
*END

*D_NET *31 0.056215
*CONN
*P HADDR[8] I
*I *359:HADDR[8] I *D ahb_counter
*CAP
1 HADDR[8] 0.00374627
2 *359:HADDR[8] 0.0066233
3 *31:5 0.0103696
4 *359:HADDR[8] *359:HTRANS[1] 4.18789e-05
5 *359:HADDR[8] *359:HWDATA[0] 0
6 *359:HADDR[8] *359:HWDATA[3] 0
7 *359:HADDR[8] *359:HWDATA[4] 0
8 *359:HADDR[8] *359:HWDATA[7] 0
9 *359:HADDR[8] *61:11 0.00223929
10 *359:HADDR[8] *64:7 0
11 *359:HADDR[0] *359:HADDR[8] 0.0166016
12 *359:HADDR[10] *359:HADDR[8] 0
13 *359:HADDR[20] *359:HADDR[8] 0.0165931
*RES
1 HADDR[8] *31:5 67.3725 
2 *31:5 *359:HADDR[8] 42.5489 
*END

*D_NET *32 0.0491154
*CONN
*P HADDR[9] I
*I *359:HADDR[9] I *D ahb_counter
*CAP
1 HADDR[9] 0.002349
2 *359:HADDR[9] 0.00177777
3 *32:11 0.0116265
4 *32:7 0.0121977
5 *359:HADDR[9] *359:HWDATA[8] 0
6 *359:HADDR[9] *65:11 0
7 *32:11 *64:11 0.000581877
8 *6:11 *32:11 0
9 *7:11 *32:11 0.0205825
10 *19:11 *32:11 0
11 *28:11 *32:11 0
*RES
1 HADDR[9] *32:7 42.3725 
2 *32:7 *32:11 37.1295 
3 *32:11 *359:HADDR[9] 30.6525 
*END

*D_NET *33 0.047178
*CONN
*P HCLK I
*I *359:HCLK I *D ahb_counter
*CAP
1 HCLK 0.00831663
2 *359:HCLK 7.20231e-05
3 *33:17 0.00446871
4 *33:15 0.0127133
5 *359:HCLK *359:HREADY 0
6 *33:15 *68:15 0.0216073
7 *33:17 *359:HREADY 0
8 *24:7 *33:17 0
*RES
1 HCLK *33:15 38.1944 
2 *33:15 *33:17 74.055 
3 *33:17 *359:HCLK 1.35 
*END

*D_NET *34 0.0583476
*CONN
*P HRDATA[0] O
*I *359:HRDATA[0] O *D ahb_counter
*CAP
1 HRDATA[0] 0.000773623
2 *359:HRDATA[0] 0.00243456
3 *34:11 0.00655813
4 *34:5 0.00821906
5 HRDATA[0] *55:5 0.00184967
6 *34:5 *359:HSIZE[0] 0
7 *34:5 *86:5 0.0013216
8 *34:11 *45:11 0
9 *34:11 *47:11 0.00652518
10 *34:11 *66:11 0.0111587
11 *359:HADDR[0] *34:5 0
12 *12:11 *34:11 0.00112137
13 *14:11 *34:11 0.0183858
*RES
1 *359:HRDATA[0] *34:5 51.5625 
2 *34:5 *34:11 38.5035 
3 *34:11 HRDATA[0] 20.9625 
*END

*D_NET *35 0.0551106
*CONN
*P HRDATA[10] O
*I *359:HRDATA[10] O *D ahb_counter
*CAP
1 HRDATA[10] 0.00587326
2 *359:HRDATA[10] 0.00390647
3 *35:5 0.00977973
4 HRDATA[10] HRDATA[11] 0.0214039
5 HRDATA[10] *359:HTRANS[1] 0.000410049
6 HRDATA[10] *99:11 0
7 *35:5 *359:HWDATA[10] 0
8 *35:5 *76:19 0
9 *359:HADDR[10] *35:5 0
10 *16:11 HRDATA[10] 0
11 *20:11 HRDATA[10] 0.0137371
*RES
1 *359:HRDATA[10] *35:5 67.3725 
2 *35:5 HRDATA[10] 39.286 
*END

*D_NET *36 0.0469265
*CONN
*P HRDATA[11] O
*I *359:HRDATA[11] O *D ahb_counter
*CAP
1 HRDATA[11] 0.00868461
2 *359:HRDATA[11] 0.00387164
3 *36:5 0.0125562
4 HRDATA[11] HRDATA[15] 0
5 HRDATA[11] *359:HTRANS[1] 0.000410049
6 *36:5 *359:HWDATA[11] 0
7 HRDATA[10] HRDATA[11] 0.0214039
8 *359:HADDR[11] *36:5 0
9 *16:11 HRDATA[11] 0
*RES
1 *359:HRDATA[11] *36:5 66.8625 
2 *36:5 HRDATA[11] 39.5629 
*END

*D_NET *37 0.054512
*CONN
*P HRDATA[12] O
*I *359:HRDATA[12] O *D ahb_counter
*CAP
1 HRDATA[12] 0.00379265
2 *359:HRDATA[12] 0.00567959
3 *37:11 0.00947224
4 *37:11 *359:HWDATA[12] 0
5 *37:11 *50:11 0.012068
6 *37:11 *61:11 0.0172026
7 *37:11 *65:11 0
8 *359:HADDR[12] *37:11 0
9 *359:HADDR[20] *37:11 0.00629691
*RES
1 *359:HRDATA[12] *37:11 38.8198 
2 *37:11 HRDATA[12] 67.3725 
*END

*D_NET *38 0.0558905
*CONN
*P HRDATA[13] O
*I *359:HRDATA[13] O *D ahb_counter
*CAP
1 HRDATA[13] 0.00349879
2 *359:HRDATA[13] 0.00540766
3 *38:11 0.00890645
4 *38:11 *359:HWDATA[13] 0
5 *38:11 *50:11 0
6 *38:11 *51:11 0.0119088
7 *38:11 *63:11 0
8 *38:11 *65:11 0.0190425
9 *359:HADDR[13] *38:11 0
10 *15:11 *38:11 0.0071262
*RES
1 *359:HRDATA[13] *38:11 43.6868 
2 *38:11 HRDATA[13] 62.2725 
*END

*D_NET *39 0.0410104
*CONN
*P HRDATA[14] O
*I *359:HRDATA[14] O *D ahb_counter
*CAP
1 HRDATA[14] 0.00153628
2 *359:HRDATA[14] 0.00265773
3 *39:11 0.0113778
4 *39:7 0.0124992
5 *39:7 *359:HWDATA[14] 0
6 *39:11 *45:11 0.0129394
7 *39:11 *49:11 0
8 *359:HADDR[14] *39:7 0
9 *25:11 *39:11 0
*RES
1 *359:HRDATA[14] *39:7 46.4525 
2 *39:7 *39:11 32.7012 
3 *39:11 HRDATA[14] 26.5725 
*END

*D_NET *40 0.0444343
*CONN
*P HRDATA[15] O
*I *359:HRDATA[15] O *D ahb_counter
*CAP
1 HRDATA[15] 0.00903215
2 *359:HRDATA[15] 0.00360539
3 *40:5 0.0126375
4 HRDATA[15] HRDATA[2] 0.012816
5 *40:5 *359:HWDATA[15] 0
6 HRDATA[11] HRDATA[15] 0
7 *359:HADDR[15] *40:5 0
8 *16:11 HRDATA[15] 0.00634315
*RES
1 *359:HRDATA[15] *40:5 62.2725 
2 *40:5 HRDATA[15] 43.2206 
*END

*D_NET *41 0.0407183
*CONN
*P HRDATA[16] O
*I *359:HRDATA[16] O *D ahb_counter
*CAP
1 HRDATA[16] 0.0116288
2 *359:HRDATA[16] 0.00327502
3 *41:5 0.0149039
4 HRDATA[16] HRDATA[2] 0
5 HRDATA[16] *47:11 0
6 *41:5 *359:HWDATA[16] 0
7 *359:HADDR[16] *41:5 0
8 *14:11 HRDATA[16] 0
9 *24:11 HRDATA[16] 0.0109106
*RES
1 *359:HRDATA[16] *41:5 56.6625 
2 *41:5 HRDATA[16] 48.5976 
*END

*D_NET *42 0.0527045
*CONN
*P HRDATA[17] O
*I *359:HRDATA[17] O *D ahb_counter
*CAP
1 HRDATA[17] 0.00318772
2 *359:HRDATA[17] 0.00679622
3 *42:11 0.00998395
4 *42:11 *359:HWDATA[17] 0
5 *42:11 *51:11 0
6 *42:11 *52:11 0.0133609
7 *42:11 *59:11 0
8 *42:11 *63:11 0.0140425
9 *359:HADDR[17] *42:11 0
10 *17:11 *42:11 0.00533316
*RES
1 *359:HRDATA[17] *42:11 47.8545 
2 *42:11 HRDATA[17] 57.1725 
*END

*D_NET *43 0.0423505
*CONN
*P HRDATA[18] O
*I *359:HRDATA[18] O *D ahb_counter
*CAP
1 HRDATA[18] 0.00289423
2 *359:HRDATA[18] 0.00119067
3 *43:11 0.0117657
4 *43:7 0.0100622
5 *43:7 *359:HWDATA[18] 0
6 *43:11 *52:11 0
7 *43:11 *59:11 0.0109562
8 *43:11 *60:11 0
9 *359:HADDR[18] *43:7 0
10 *18:11 *43:11 0.00548147
*RES
1 *359:HRDATA[18] *43:7 20.9525 
2 *43:7 *43:11 31.7689 
3 *43:11 HRDATA[18] 52.0725 
*END

*D_NET *44 0.0424407
*CONN
*P HRDATA[19] O